* SPICE3 file created from 8bit_dac_flat.ext - technology: sky130B

.subckt x8bit_dac_flat vrefh vrefl d0 d1 d2 d3 d4 d5 d6 d7 vout vss vdd
X0 X1.X2.X1.X2.X3.vin2 a_19722_10916# X1.X2.X1.X3.vin2 vdd sky130_fd_pr__pfet_01v8 ad=0.29 pd=2.58 as=0.29 ps=2.58 w=1 l=0.5
X1 X1.X1.X1.X2.X1.X2.X1.vin2 a_2582_13728# X1.X1.X1.X2.X1.X2.X3.vin1 vdd sky130_fd_pr__pfet_01v8 ad=0.29 pd=2.58 as=0.29 ps=2.58 w=1 l=0.5
X2 X2.X2.X2.X1.X1.X2.X1.vin1 X2.X2.X2.X1.X1.X2.X1.vin2 vss sky130_fd_pr__res_high_po_0p35 l=1.09
X3 X2.X2.X1.X2.X1.X1.X3.vin2 a_46116_15634# X2.X2.X1.X2.X1.X2.vrefh vss sky130_fd_pr__nfet_01v8 ad=0.122 pd=1.42 as=0.122 ps=1.42 w=0.42 l=0.5
X4 X2.X2.X1.X3.vin1 a_49002_18540# X2.X2.X3.vin1 vss sky130_fd_pr__nfet_01v8 ad=0.122 pd=1.42 as=0.122 ps=1.42 w=0.42 l=0.5
X5 vdd a_11072_4110# a_10686_4110# vdd sky130_fd_pr__pfet_01v8 ad=0.29 pd=2.58 as=0.29 ps=2.58 w=1 l=0.5
X6 a_46502_9916# a_46116_9916# vdd vdd sky130_fd_pr__pfet_01v8 ad=0.29 pd=2.58 as=0.29 ps=2.58 w=1 l=0.5
X7 X2.X1.X1.X1.X1.X2.X3.vin1 a_31476_28976# X2.X1.X1.X1.X1.X2.X1.vin2 vss sky130_fd_pr__nfet_01v8 ad=0.122 pd=1.42 as=0.122 ps=1.42 w=0.42 l=0.5
X8 vss a_52492_18358# a_52106_18358# vss sky130_fd_pr__nfet_01v8 ad=0.122 pd=1.42 as=0.122 ps=1.42 w=0.42 l=0.5
X9 X1.X2.X2.X2.X1.X1.X3.vin2 a_23512_20264# X1.X2.X2.X2.X1.X1.vout vss sky130_fd_pr__nfet_01v8 ad=0.122 pd=1.42 as=0.122 ps=1.42 w=0.42 l=0.5
X10 a_35312_892# a_34926_892# vdd vdd sky130_fd_pr__pfet_01v8 ad=0.29 pd=2.58 as=0.29 ps=2.58 w=1 l=0.5
X11 a_2582_13728# a_2196_13728# vss vss sky130_fd_pr__nfet_01v8 ad=0.122 pd=1.42 as=0.122 ps=1.42 w=0.42 l=0.5
X12 a_16836_25164# d0 vss vss sky130_fd_pr__nfet_01v8 ad=0.122 pd=1.42 as=0.122 ps=1.42 w=0.42 l=0.5
X13 vdd a_8872_16452# a_8486_16452# vdd sky130_fd_pr__pfet_01v8 ad=0.29 pd=2.58 as=0.29 ps=2.58 w=1 l=0.5
X14 a_33676_12822# d1 vss vss sky130_fd_pr__nfet_01v8 ad=0.122 pd=1.42 as=0.122 ps=1.42 w=0.42 l=0.5
X15 X1.X1.X2.X1.X2.X1.X1.vin2 a_11072_11734# X1.X1.X2.X1.X2.X1.X3.vin1 vss sky130_fd_pr__nfet_01v8 ad=0.122 pd=1.42 as=0.122 ps=1.42 w=0.42 l=0.5
X16 X2.X2.X1.X1.X1.X2.X3.vin1 a_46116_28976# X2.X2.X1.X1.X1.X2.X1.vin1 vdd sky130_fd_pr__pfet_01v8 ad=0.29 pd=2.58 as=0.29 ps=2.58 w=1 l=0.5
X17 a_46502_4198# a_46116_4198# vdd vdd sky130_fd_pr__pfet_01v8 ad=0.29 pd=2.58 as=0.29 ps=2.58 w=1 l=0.5
X18 X2.X1.X2.X2.X2.X2.X2.vin1 X2.X2.vrefh vss sky130_fd_pr__res_high_po_0p35 l=1.09
X19 X2.X2.X2.X1.X1.X2.X3.vin1 a_54606_7922# X2.X2.X2.X1.X1.X2.X1.vin2 vdd sky130_fd_pr__pfet_01v8 ad=0.29 pd=2.58 as=0.29 ps=2.58 w=1 l=0.5
X20 X2.X1.X1.X1.X2.X2.X3.vin2 a_34062_20446# X2.X1.X1.X1.X2.X2.vout vdd sky130_fd_pr__pfet_01v8 ad=0.29 pd=2.58 as=0.29 ps=2.58 w=1 l=0.5
X21 X2.X2.X2.X2.X1.X2.X1.vin1 a_54992_23170# X2.X2.X2.X2.X1.X2.X3.vin1 vdd sky130_fd_pr__pfet_01v8 ad=0.29 pd=2.58 as=0.29 ps=2.58 w=1 l=0.5
X22 X2.X1.X2.X2.X1.X1.vout a_37766_20264# X2.X1.X2.X2.X1.X1.X3.vin2 vdd sky130_fd_pr__pfet_01v8 ad=0.29 pd=2.58 as=0.29 ps=2.58 w=1 l=0.5
X23 a_16836_4198# d0 vss vss sky130_fd_pr__nfet_01v8 ad=0.122 pd=1.42 as=0.122 ps=1.42 w=0.42 l=0.5
X24 X1.X2.X2.X1.X1.X1.vout a_23126_5016# X1.X2.X2.X1.X1.X1.X3.vin1 vss sky130_fd_pr__nfet_01v8 ad=0.122 pd=1.42 as=0.122 ps=1.42 w=0.42 l=0.5
X25 X2.X2.X1.X2.X3.vin1 a_49002_10916# X2.X2.X1.X3.vin2 vss sky130_fd_pr__nfet_01v8 ad=0.122 pd=1.42 as=0.122 ps=1.42 w=0.42 l=0.5
X26 X1.X1.X1.X2.X1.X1.X3.vin2 a_4782_16634# X1.X1.X1.X2.X1.X1.vout vdd sky130_fd_pr__pfet_01v8 ad=0.29 pd=2.58 as=0.29 ps=2.58 w=1 l=0.5
X27 X1.X1.X2.X1.X1.X1.X1.vin1 X1.X1.X2.X1.X1.X1.X1.vin2 vss sky130_fd_pr__res_high_po_0p35 l=1.09
X28 vss d0 a_54992_13640# vss sky130_fd_pr__nfet_01v8 ad=0.122 pd=1.42 as=0.122 ps=1.42 w=0.42 l=0.5
X29 vdd a_23212_6962# a_22826_6962# vdd sky130_fd_pr__pfet_01v8 ad=0.29 pd=2.58 as=0.29 ps=2.58 w=1 l=0.5
X30 a_46502_15634# a_46116_15634# vss vss sky130_fd_pr__nfet_01v8 ad=0.122 pd=1.42 as=0.122 ps=1.42 w=0.42 l=0.5
X31 vss d0 a_25712_17452# vss sky130_fd_pr__nfet_01v8 ad=0.122 pd=1.42 as=0.122 ps=1.42 w=0.42 l=0.5
X32 X1.X1.X2.X3.vin2 a_8186_25982# X1.X1.X2.X2.X3.vin1 vss sky130_fd_pr__nfet_01v8 ad=0.122 pd=1.42 as=0.122 ps=1.42 w=0.42 l=0.5
X33 a_17222_19446# a_16836_19446# vss vss sky130_fd_pr__nfet_01v8 ad=0.122 pd=1.42 as=0.122 ps=1.42 w=0.42 l=0.5
X34 X2.X1.X1.X1.X2.X1.vout a_34362_22312# X2.X1.X1.X1.X3.vin2 vss sky130_fd_pr__nfet_01v8 ad=0.122 pd=1.42 as=0.122 ps=1.42 w=0.42 l=0.5
X35 X1.X2.X1.X1.X1.X2.X3.vin2 a_19422_28070# X1.X2.X1.X1.X1.X2.vout vdd sky130_fd_pr__pfet_01v8 ad=0.29 pd=2.58 as=0.29 ps=2.58 w=1 l=0.5
X36 vdd d0 a_11072_17452# vdd sky130_fd_pr__pfet_01v8 ad=0.29 pd=2.58 as=0.29 ps=2.58 w=1 l=0.5
X37 X2.X1.X1.X2.X2.X2.X1.vin2 a_31862_6104# X2.X1.X1.X2.X2.X2.X3.vin1 vdd sky130_fd_pr__pfet_01v8 ad=0.29 pd=2.58 as=0.29 ps=2.58 w=1 l=0.5
X38 X1.X1.X1.X1.X1.X1.X3.vin2 a_2196_30882# X1.X1.X1.X1.X1.X1.X2.vin1 vdd sky130_fd_pr__pfet_01v8 ad=0.29 pd=2.58 as=0.29 ps=2.58 w=1 l=0.5
X39 X1.X2.X2.X2.X1.X2.X1.vin2 a_25712_23170# X1.X2.X2.X2.X1.X2.X3.vin1 vss sky130_fd_pr__nfet_01v8 ad=0.122 pd=1.42 as=0.122 ps=1.42 w=0.42 l=0.5
X40 a_19422_31882# a_19036_31882# vdd vdd sky130_fd_pr__pfet_01v8 ad=0.29 pd=2.58 as=0.29 ps=2.58 w=1 l=0.5
X41 X2.X2.X2.X2.X2.X1.vout a_52492_29834# X2.X2.X2.X2.X3.vin2 vdd sky130_fd_pr__pfet_01v8 ad=0.29 pd=2.58 as=0.29 ps=2.58 w=1 l=0.5
X42 X2.X2.vrefh X2.X2.X1.X1.X1.X1.X1.vin1 vss sky130_fd_pr__res_high_po_0p35 l=1.09
X43 X2.X2.X1.X1.X2.X2.vout a_49002_22312# X2.X2.X1.X1.X3.vin2 vdd sky130_fd_pr__pfet_01v8 ad=0.29 pd=2.58 as=0.29 ps=2.58 w=1 l=0.5
X44 a_46502_28976# a_46116_28976# vdd vdd sky130_fd_pr__pfet_01v8 ad=0.29 pd=2.58 as=0.29 ps=2.58 w=1 l=0.5
X45 vdd d1 a_38152_27888# vdd sky130_fd_pr__pfet_01v8 ad=0.29 pd=2.58 as=0.29 ps=2.58 w=1 l=0.5
X46 a_4782_31882# a_4396_31882# vss vss sky130_fd_pr__nfet_01v8 ad=0.122 pd=1.42 as=0.122 ps=1.42 w=0.42 l=0.5
X47 vdd d0 a_25712_9828# vdd sky130_fd_pr__pfet_01v8 ad=0.29 pd=2.58 as=0.29 ps=2.58 w=1 l=0.5
X48 X1.X1.X1.X2.X1.X2.X2.vin1 a_2582_11822# X1.X1.X1.X2.X1.X2.X3.vin2 vss sky130_fd_pr__nfet_01v8 ad=0.122 pd=1.42 as=0.122 ps=1.42 w=0.42 l=0.5
X49 vss a_25712_28888# a_25326_28888# vss sky130_fd_pr__nfet_01v8 ad=0.122 pd=1.42 as=0.122 ps=1.42 w=0.42 l=0.5
X50 X2.X2.X2.X1.X2.X2.X2.vin1 X2.X2.X2.X1.X2.X2.X1.vin2 vss sky130_fd_pr__res_high_po_0p35 l=1.09
X51 X1.X2.X1.X2.vrefh a_17222_19446# X1.X2.X1.X1.X2.X2.X3.vin2 vdd sky130_fd_pr__pfet_01v8 ad=0.29 pd=2.58 as=0.29 ps=2.58 w=1 l=0.5
X52 a_2582_32788# a_2196_32788# vdd vdd sky130_fd_pr__pfet_01v8 ad=0.29 pd=2.58 as=0.29 ps=2.58 w=1 l=0.5
X53 X2.X2.X2.X2.X2.X2.X3.vin1 a_52792_31700# X2.X2.X2.X2.X2.X2.vout vdd sky130_fd_pr__pfet_01v8 ad=0.29 pd=2.58 as=0.29 ps=2.58 w=1 l=0.5
X54 X1.X2.X1.X1.X2.X2.vout a_19036_20446# X1.X2.X1.X1.X2.X2.X3.vin1 vdd sky130_fd_pr__pfet_01v8 ad=0.29 pd=2.58 as=0.29 ps=2.58 w=1 l=0.5
X55 X2.X1.X2.X2.X1.X2.X3.vin1 a_39966_23170# X2.X1.X2.X2.X1.X2.X1.vin2 vdd sky130_fd_pr__pfet_01v8 ad=0.29 pd=2.58 as=0.29 ps=2.58 w=1 l=0.5
X56 X2.X2.X2.X2.X2.X2.X3.vin2 a_54606_32700# vrefl vdd sky130_fd_pr__pfet_01v8 ad=0.29 pd=2.58 as=0.29 ps=2.58 w=1 l=0.5
X57 X2.X2.X2.X2.X2.X2.X3.vin1 a_54606_30794# X2.X2.X2.X2.X2.X2.X1.vin1 vss sky130_fd_pr__nfet_01v8 ad=0.122 pd=1.42 as=0.122 ps=1.42 w=0.42 l=0.5
X58 X1.X2.X2.X1.X2.X1.X1.vin1 X1.X2.X2.X1.X2.X1.X1.vin2 vss sky130_fd_pr__res_high_po_0p35 l=1.09
X59 a_5082_18540# a_4696_18540# vdd vdd sky130_fd_pr__pfet_01v8 ad=0.29 pd=2.58 as=0.29 ps=2.58 w=1 l=0.5
X60 X1.X1.X1.X1.X3.vin1 a_4696_29936# X1.X1.X1.X1.X1.X1.vout vdd sky130_fd_pr__pfet_01v8 ad=0.29 pd=2.58 as=0.29 ps=2.58 w=1 l=0.5
X61 vdd d0 a_54992_21264# vdd sky130_fd_pr__pfet_01v8 ad=0.29 pd=2.58 as=0.29 ps=2.58 w=1 l=0.5
X62 vdd d0 a_25712_25076# vdd sky130_fd_pr__pfet_01v8 ad=0.29 pd=2.58 as=0.29 ps=2.58 w=1 l=0.5
X63 a_4782_5198# a_4396_5198# vss vss sky130_fd_pr__nfet_01v8 ad=0.122 pd=1.42 as=0.122 ps=1.42 w=0.42 l=0.5
X64 vdd d3 a_23212_10734# vdd sky130_fd_pr__pfet_01v8 ad=0.29 pd=2.58 as=0.29 ps=2.58 w=1 l=0.5
X65 X1.X1.X1.X1.X2.X1.X1.vin2 a_2582_25164# X1.X1.X1.X1.X2.X1.X3.vin1 vdd sky130_fd_pr__pfet_01v8 ad=0.29 pd=2.58 as=0.29 ps=2.58 w=1 l=0.5
X66 vss a_40352_15546# a_39966_15546# vss sky130_fd_pr__nfet_01v8 ad=0.122 pd=1.42 as=0.122 ps=1.42 w=0.42 l=0.5
X67 X2.X1.X1.X1.X2.X2.X1.vin2 X2.X1.X1.X1.X2.X2.X1.vin1 vss sky130_fd_pr__res_high_po_0p35 l=1.09
X68 X2.X1.X1.X1.X2.X1.vout a_33676_24258# X2.X1.X1.X1.X2.X1.X3.vin1 vdd sky130_fd_pr__pfet_01v8 ad=0.29 pd=2.58 as=0.29 ps=2.58 w=1 l=0.5
X69 a_5646_892# d5 vss vss sky130_fd_pr__nfet_01v8 ad=0.122 pd=1.42 as=0.122 ps=1.42 w=0.42 l=0.5
X70 a_4396_20446# d1 vdd vdd sky130_fd_pr__pfet_01v8 ad=0.29 pd=2.58 as=0.29 ps=2.58 w=1 l=0.5
X71 X2.X1.X1.X3.vin1 a_33976_26164# X2.X1.X1.X1.X3.vin1 vdd sky130_fd_pr__pfet_01v8 ad=0.29 pd=2.58 as=0.29 ps=2.58 w=1 l=0.5
X72 X2.X1.X2.X2.X3.vin2 a_37466_29834# X2.X1.X2.X2.X2.X2.vout vdd sky130_fd_pr__pfet_01v8 ad=0.29 pd=2.58 as=0.29 ps=2.58 w=1 l=0.5
X73 a_5082_10916# a_4696_10916# vdd vdd sky130_fd_pr__pfet_01v8 ad=0.29 pd=2.58 as=0.29 ps=2.58 w=1 l=0.5
X74 X2.X1.X2.X2.X1.X1.X1.vin1 a_40352_19358# X2.X1.X2.X2.X1.X1.X3.vin1 vdd sky130_fd_pr__pfet_01v8 ad=0.29 pd=2.58 as=0.29 ps=2.58 w=1 l=0.5
X75 a_17222_6104# a_16836_6104# vss vss sky130_fd_pr__nfet_01v8 ad=0.122 pd=1.42 as=0.122 ps=1.42 w=0.42 l=0.5
X76 X1.X2.X1.X1.X2.X1.X1.vin1 a_17222_25164# X1.X2.X1.X1.X2.X1.X3.vin1 vss sky130_fd_pr__nfet_01v8 ad=0.122 pd=1.42 as=0.122 ps=1.42 w=0.42 l=0.5
X77 X2.X1.X1.X2.X2.X1.vout a_34362_7064# X2.X1.X1.X2.X3.vin2 vss sky130_fd_pr__nfet_01v8 ad=0.122 pd=1.42 as=0.122 ps=1.42 w=0.42 l=0.5
X78 X1.X1.X2.X2.X1.X2.X1.vin1 X1.X1.X2.X2.X1.X2.vrefh vss sky130_fd_pr__res_high_po_0p35 l=1.09
X79 vrefl a_54992_32700# X2.X2.X2.X2.X2.X2.X3.vin2 vss sky130_fd_pr__nfet_01v8 ad=0.122 pd=1.42 as=0.122 ps=1.42 w=0.42 l=0.5
X80 X2.X1.X2.X2.X2.X2.vout a_37766_31700# X2.X1.X2.X2.X2.X2.X3.vin2 vdd sky130_fd_pr__pfet_01v8 ad=0.29 pd=2.58 as=0.29 ps=2.58 w=1 l=0.5
X81 vdd a_23512_8828# a_23126_8828# vdd sky130_fd_pr__pfet_01v8 ad=0.29 pd=2.58 as=0.29 ps=2.58 w=1 l=0.5
X82 X1.X2.X1.X1.X1.X1.X1.vin2 X1.X2.X1.X1.X1.X1.X2.vin1 vss sky130_fd_pr__res_high_po_0p35 l=1.09
X83 X1.X1.X2.X1.X1.X1.X3.vin1 a_8872_5016# X1.X1.X2.X1.X1.X1.vout vdd sky130_fd_pr__pfet_01v8 ad=0.29 pd=2.58 as=0.29 ps=2.58 w=1 l=0.5
X84 X1.X1.X1.X2.X1.X2.X3.vin1 a_2196_13728# X1.X1.X1.X2.X1.X2.X1.vin1 vdd sky130_fd_pr__pfet_01v8 ad=0.29 pd=2.58 as=0.29 ps=2.58 w=1 l=0.5
X85 X2.X1.X1.X2.X2.X2.X3.vin2 a_34062_5198# X2.X1.X1.X2.X2.X2.vout vdd sky130_fd_pr__pfet_01v8 ad=0.29 pd=2.58 as=0.29 ps=2.58 w=1 l=0.5
X86 a_31862_19446# a_31476_19446# vss vss sky130_fd_pr__nfet_01v8 ad=0.122 pd=1.42 as=0.122 ps=1.42 w=0.42 l=0.5
X87 X1.X1.X2.X2.X2.X1.vout a_8486_27888# X1.X1.X2.X2.X2.X1.X3.vin2 vdd sky130_fd_pr__pfet_01v8 ad=0.29 pd=2.58 as=0.29 ps=2.58 w=1 l=0.5
X88 X2.X2.X2.X1.X1.X1.X3.vin1 a_52792_5016# X2.X2.X2.X1.X1.X1.vout vdd sky130_fd_pr__pfet_01v8 ad=0.29 pd=2.58 as=0.29 ps=2.58 w=1 l=0.5
X89 X2.X2.X2.X1.X2.X1.X1.vin1 X2.X2.X2.X1.X2.vrefh vss sky130_fd_pr__res_high_po_0p35 l=1.09
X90 X2.X2.X2.vrefh a_46502_4198# X2.X2.X1.X2.X2.X2.X3.vin2 vdd sky130_fd_pr__pfet_01v8 ad=0.29 pd=2.58 as=0.29 ps=2.58 w=1 l=0.5
X91 vdd a_54992_7922# a_54606_7922# vdd sky130_fd_pr__pfet_01v8 ad=0.29 pd=2.58 as=0.29 ps=2.58 w=1 l=0.5
X92 vss a_11072_6016# a_10686_6016# vss sky130_fd_pr__nfet_01v8 ad=0.122 pd=1.42 as=0.122 ps=1.42 w=0.42 l=0.5
X93 X2.X1.X2.X1.X1.X1.X2.vin1 X2.X1.X2.X1.X1.X2.vrefh vss sky130_fd_pr__res_high_po_0p35 l=1.09
X94 X2.X2.X1.X2.X2.X1.X1.vin2 X2.X2.X1.X2.X2.X1.X2.vin1 vss sky130_fd_pr__res_high_po_0p35 l=1.09
X95 a_34062_31882# a_33676_31882# vdd vdd sky130_fd_pr__pfet_01v8 ad=0.29 pd=2.58 as=0.29 ps=2.58 w=1 l=0.5
X96 X1.X2.X1.X1.X3.vin1 a_19336_29936# X1.X2.X1.X1.X1.X1.vout vdd sky130_fd_pr__pfet_01v8 ad=0.29 pd=2.58 as=0.29 ps=2.58 w=1 l=0.5
X97 vss d0 a_11072_26982# vss sky130_fd_pr__nfet_01v8 ad=0.122 pd=1.42 as=0.122 ps=1.42 w=0.42 l=0.5
X98 X1.X2.X2.X2.X2.X2.X2.vin1 X1.X2.X2.X2.X2.X2.X1.vin2 vss sky130_fd_pr__res_high_po_0p35 l=1.09
X99 X1.X1.X2.X2.X2.X2.X1.vin1 a_11072_30794# X1.X1.X2.X2.X2.X2.X3.vin1 vdd sky130_fd_pr__pfet_01v8 ad=0.29 pd=2.58 as=0.29 ps=2.58 w=1 l=0.5
X100 X2.X1.X1.X2.X2.vrefh a_31862_11822# X2.X1.X1.X2.X1.X2.X3.vin2 vdd sky130_fd_pr__pfet_01v8 ad=0.29 pd=2.58 as=0.29 ps=2.58 w=1 l=0.5
X101 X1.X1.X2.X1.X2.X1.X3.vin1 a_10686_11734# X1.X1.X2.X1.X2.X1.X1.vin1 vss sky130_fd_pr__nfet_01v8 ad=0.122 pd=1.42 as=0.122 ps=1.42 w=0.42 l=0.5
X102 X2.X2.X2.X1.X2.X2.X3.vin1 a_54606_15546# X2.X2.X2.X1.X2.X2.X1.vin2 vdd sky130_fd_pr__pfet_01v8 ad=0.29 pd=2.58 as=0.29 ps=2.58 w=1 l=0.5
X103 X1.X2.X2.X2.X1.X1.X3.vin1 a_25326_19358# X1.X2.X2.X2.X1.X1.X1.vin2 vdd sky130_fd_pr__pfet_01v8 ad=0.29 pd=2.58 as=0.29 ps=2.58 w=1 l=0.5
X104 vss a_25712_19358# a_25326_19358# vss sky130_fd_pr__nfet_01v8 ad=0.122 pd=1.42 as=0.122 ps=1.42 w=0.42 l=0.5
X105 a_4782_28070# a_4396_28070# vdd vdd sky130_fd_pr__pfet_01v8 ad=0.29 pd=2.58 as=0.29 ps=2.58 w=1 l=0.5
X106 vss a_52792_16452# a_52406_16452# vss sky130_fd_pr__nfet_01v8 ad=0.122 pd=1.42 as=0.122 ps=1.42 w=0.42 l=0.5
X107 X2.X1.X2.X2.X2.X2.X3.vin2 a_39966_32700# X2.X1.X2.X2.X2.X2.X2.vin1 vss sky130_fd_pr__nfet_01v8 ad=0.122 pd=1.42 as=0.122 ps=1.42 w=0.42 l=0.5
X108 a_48316_28070# d1 vss vss sky130_fd_pr__nfet_01v8 ad=0.122 pd=1.42 as=0.122 ps=1.42 w=0.42 l=0.5
X109 X2.X2.X1.X2.X1.X2.X1.vin2 X2.X2.X1.X2.X1.X2.X1.vin1 vss sky130_fd_pr__res_high_po_0p35 l=1.09
X110 vdd d0 a_54992_32700# vdd sky130_fd_pr__pfet_01v8 ad=0.29 pd=2.58 as=0.29 ps=2.58 w=1 l=0.5
X111 X1.X3.vin2 a_20286_892# X1.X2.X3.vin1 vdd sky130_fd_pr__pfet_01v8 ad=0.29 pd=2.58 as=0.29 ps=2.58 w=1 l=0.5
X112 X1.X2.X1.X2.X1.X1.X1.vin2 X1.X2.X1.X2.X1.X1.X1.vin1 vss sky130_fd_pr__res_high_po_0p35 l=1.09
X113 a_46116_30882# d0 vdd vdd sky130_fd_pr__pfet_01v8 ad=0.29 pd=2.58 as=0.29 ps=2.58 w=1 l=0.5
X114 vss d0 a_54992_30794# vss sky130_fd_pr__nfet_01v8 ad=0.122 pd=1.42 as=0.122 ps=1.42 w=0.42 l=0.5
X115 a_49002_18540# a_48616_18540# vss vss sky130_fd_pr__nfet_01v8 ad=0.122 pd=1.42 as=0.122 ps=1.42 w=0.42 l=0.5
X116 X2.X1.X1.X1.X3.vin2 a_33976_22312# X2.X1.X1.X1.X2.X2.vout vss sky130_fd_pr__nfet_01v8 ad=0.122 pd=1.42 as=0.122 ps=1.42 w=0.42 l=0.5
X117 a_17222_23258# a_16836_23258# vdd vdd sky130_fd_pr__pfet_01v8 ad=0.29 pd=2.58 as=0.29 ps=2.58 w=1 l=0.5
X118 a_16836_19446# d0 vss vss sky130_fd_pr__nfet_01v8 ad=0.122 pd=1.42 as=0.122 ps=1.42 w=0.42 l=0.5
X119 X1.X2.X1.X2.X2.X1.X3.vin2 a_16836_8010# X1.X2.X1.X2.X2.X1.X2.vin1 vdd sky130_fd_pr__pfet_01v8 ad=0.29 pd=2.58 as=0.29 ps=2.58 w=1 l=0.5
X120 X1.X2.X2.X1.X2.X2.X2.vin1 X1.X2.X2.X2.vrefh vss sky130_fd_pr__res_high_po_0p35 l=1.09
X121 a_19036_31882# d1 vdd vdd sky130_fd_pr__pfet_01v8 ad=0.29 pd=2.58 as=0.29 ps=2.58 w=1 l=0.5
X122 X2.X1.X1.X2.X1.X1.X1.vin1 a_31862_17540# X2.X1.X1.X2.X1.X1.X3.vin1 vss sky130_fd_pr__nfet_01v8 ad=0.122 pd=1.42 as=0.122 ps=1.42 w=0.42 l=0.5
X123 X2.X2.X2.X1.X2.X2.X2.vin1 a_54992_17452# X2.X2.X2.X1.X2.X2.X3.vin2 vdd sky130_fd_pr__pfet_01v8 ad=0.29 pd=2.58 as=0.29 ps=2.58 w=1 l=0.5
X124 X1.X2.X1.X2.X1.X2.X3.vin2 a_16836_11822# X1.X2.X1.X2.X1.X2.X2.vin1 vdd sky130_fd_pr__pfet_01v8 ad=0.29 pd=2.58 as=0.29 ps=2.58 w=1 l=0.5
X125 X1.X1.X1.X3.vin1 a_4696_26164# X1.X1.X1.X1.X3.vin2 vss sky130_fd_pr__nfet_01v8 ad=0.122 pd=1.42 as=0.122 ps=1.42 w=0.42 l=0.5
X126 vss d4 a_37852_18358# vss sky130_fd_pr__nfet_01v8 ad=0.122 pd=1.42 as=0.122 ps=1.42 w=0.42 l=0.5
X127 a_48316_20446# d1 vss vss sky130_fd_pr__nfet_01v8 ad=0.122 pd=1.42 as=0.122 ps=1.42 w=0.42 l=0.5
X128 X2.X1.X2.X2.X2.X2.vrefh a_40352_28888# X2.X1.X2.X2.X2.X1.X3.vin2 vss sky130_fd_pr__nfet_01v8 ad=0.122 pd=1.42 as=0.122 ps=1.42 w=0.42 l=0.5
X129 X1.X2.X2.X2.X2.X1.vout a_23126_27888# X1.X2.X2.X2.X2.X1.X3.vin2 vdd sky130_fd_pr__pfet_01v8 ad=0.29 pd=2.58 as=0.29 ps=2.58 w=1 l=0.5
X130 vdd a_52792_24076# a_52406_24076# vdd sky130_fd_pr__pfet_01v8 ad=0.29 pd=2.58 as=0.29 ps=2.58 w=1 l=0.5
X131 X1.X1.X1.X2.X1.X2.X3.vin2 a_2196_11822# X1.X1.X1.X2.X2.vrefh vss sky130_fd_pr__nfet_01v8 ad=0.122 pd=1.42 as=0.122 ps=1.42 w=0.42 l=0.5
X132 a_19422_12822# a_19036_12822# vss vss sky130_fd_pr__nfet_01v8 ad=0.122 pd=1.42 as=0.122 ps=1.42 w=0.42 l=0.5
X133 a_49002_10916# a_48616_10916# vss vss sky130_fd_pr__nfet_01v8 ad=0.122 pd=1.42 as=0.122 ps=1.42 w=0.42 l=0.5
X134 vss d2 a_8572_6962# vss sky130_fd_pr__nfet_01v8 ad=0.122 pd=1.42 as=0.122 ps=1.42 w=0.42 l=0.5
X135 vss d0 a_54992_4110# vss sky130_fd_pr__nfet_01v8 ad=0.122 pd=1.42 as=0.122 ps=1.42 w=0.42 l=0.5
X136 vdd a_37852_6962# a_37466_6962# vdd sky130_fd_pr__pfet_01v8 ad=0.29 pd=2.58 as=0.29 ps=2.58 w=1 l=0.5
X137 a_2582_6104# a_2196_6104# vss vss sky130_fd_pr__nfet_01v8 ad=0.122 pd=1.42 as=0.122 ps=1.42 w=0.42 l=0.5
X138 vss d1 a_8872_31700# vss sky130_fd_pr__nfet_01v8 ad=0.122 pd=1.42 as=0.122 ps=1.42 w=0.42 l=0.5
X139 vss d2 a_52492_6962# vss sky130_fd_pr__nfet_01v8 ad=0.122 pd=1.42 as=0.122 ps=1.42 w=0.42 l=0.5
X140 a_2196_11822# d0 vdd vdd sky130_fd_pr__pfet_01v8 ad=0.29 pd=2.58 as=0.29 ps=2.58 w=1 l=0.5
X141 X1.X1.X1.X1.X2.X1.X3.vin1 a_2196_25164# X1.X1.X1.X1.X2.X1.X1.vin1 vdd sky130_fd_pr__pfet_01v8 ad=0.29 pd=2.58 as=0.29 ps=2.58 w=1 l=0.5
X142 X1.X2.X2.X2.vrefh a_25712_17452# X1.X2.X2.X1.X2.X2.X3.vin2 vss sky130_fd_pr__nfet_01v8 ad=0.122 pd=1.42 as=0.122 ps=1.42 w=0.42 l=0.5
X143 X2.X1.X2.X2.X1.X2.X2.vin1 X2.X1.X2.X2.X1.X2.X1.vin2 vss sky130_fd_pr__res_high_po_0p35 l=1.09
X144 X2.X2.X1.X2.X2.X1.X3.vin1 a_46116_9916# X2.X2.X1.X2.X2.X1.X1.vin2 vss sky130_fd_pr__nfet_01v8 ad=0.122 pd=1.42 as=0.122 ps=1.42 w=0.42 l=0.5
X145 X1.X2.X1.X2.X2.vrefh X1.X2.X1.X2.X2.X1.X1.vin1 vss sky130_fd_pr__res_high_po_0p35 l=1.09
X146 X1.X1.X2.X2.X2.X1.X2.vin1 X1.X1.X2.X2.X2.X1.X1.vin2 vss sky130_fd_pr__res_high_po_0p35 l=1.09
X147 a_19722_7064# a_19336_7064# vss vss sky130_fd_pr__nfet_01v8 ad=0.122 pd=1.42 as=0.122 ps=1.42 w=0.42 l=0.5
X148 X1.X1.X2.X2.X1.X2.vout a_8572_22210# X1.X1.X2.X2.X3.vin1 vss sky130_fd_pr__nfet_01v8 ad=0.122 pd=1.42 as=0.122 ps=1.42 w=0.42 l=0.5
X149 X1.X2.X1.X2.X1.X1.X3.vin1 a_16836_17540# X1.X2.X1.X2.X1.X1.X1.vin2 vss sky130_fd_pr__nfet_01v8 ad=0.122 pd=1.42 as=0.122 ps=1.42 w=0.42 l=0.5
X150 X2.X2.X2.X2.X2.X2.vout a_52492_29834# X2.X2.X2.X2.X3.vin2 vss sky130_fd_pr__nfet_01v8 ad=0.122 pd=1.42 as=0.122 ps=1.42 w=0.42 l=0.5
X151 a_2196_6104# d0 vdd vdd sky130_fd_pr__pfet_01v8 ad=0.29 pd=2.58 as=0.29 ps=2.58 w=1 l=0.5
X152 X1.X2.X1.X2.X2.vrefh X1.X2.X1.X2.X1.X2.X2.vin1 vss sky130_fd_pr__res_high_po_0p35 l=1.09
X153 X2.X1.X2.X1.X2.X2.X3.vin2 a_39966_17452# X2.X1.X2.X2.vrefh vdd sky130_fd_pr__pfet_01v8 ad=0.29 pd=2.58 as=0.29 ps=2.58 w=1 l=0.5
X154 a_49002_22312# a_48616_22312# vdd vdd sky130_fd_pr__pfet_01v8 ad=0.29 pd=2.58 as=0.29 ps=2.58 w=1 l=0.5
X155 X1.X1.X1.X2.X2.X1.X3.vin2 a_4782_9010# X1.X1.X1.X2.X2.X1.vout vdd sky130_fd_pr__pfet_01v8 ad=0.29 pd=2.58 as=0.29 ps=2.58 w=1 l=0.5
X156 X1.X1.X2.X1.X1.X2.X3.vin1 a_10686_7922# X1.X1.X2.X1.X1.X2.X1.vin2 vdd sky130_fd_pr__pfet_01v8 ad=0.29 pd=2.58 as=0.29 ps=2.58 w=1 l=0.5
X157 vdd a_54992_26982# a_54606_26982# vdd sky130_fd_pr__pfet_01v8 ad=0.29 pd=2.58 as=0.29 ps=2.58 w=1 l=0.5
X158 a_31476_21352# d0 vss vss sky130_fd_pr__nfet_01v8 ad=0.122 pd=1.42 as=0.122 ps=1.42 w=0.42 l=0.5
X159 X1.X2.X2.X2.X2.X1.X3.vin2 a_25326_28888# X1.X2.X2.X2.X2.X1.X2.vin1 vss sky130_fd_pr__nfet_01v8 ad=0.122 pd=1.42 as=0.122 ps=1.42 w=0.42 l=0.5
X160 vdd d0 a_54992_15546# vdd sky130_fd_pr__pfet_01v8 ad=0.29 pd=2.58 as=0.29 ps=2.58 w=1 l=0.5
X161 vss a_54992_25076# a_54606_25076# vss sky130_fd_pr__nfet_01v8 ad=0.122 pd=1.42 as=0.122 ps=1.42 w=0.42 l=0.5
X162 a_46116_13728# d0 vdd vdd sky130_fd_pr__pfet_01v8 ad=0.29 pd=2.58 as=0.29 ps=2.58 w=1 l=0.5
X163 vdd d0 a_25712_19358# vdd sky130_fd_pr__pfet_01v8 ad=0.29 pd=2.58 as=0.29 ps=2.58 w=1 l=0.5
X164 vdd d0 a_40352_28888# vdd sky130_fd_pr__pfet_01v8 ad=0.29 pd=2.58 as=0.29 ps=2.58 w=1 l=0.5
X165 vss a_23212_22210# a_22826_22210# vss sky130_fd_pr__nfet_01v8 ad=0.122 pd=1.42 as=0.122 ps=1.42 w=0.42 l=0.5
X166 X2.X1.X2.X1.X3.vin2 a_37852_10734# X2.X1.X2.X3.vin1 vss sky130_fd_pr__nfet_01v8 ad=0.122 pd=1.42 as=0.122 ps=1.42 w=0.42 l=0.5
X167 a_19336_7064# d2 vdd vdd sky130_fd_pr__pfet_01v8 ad=0.29 pd=2.58 as=0.29 ps=2.58 w=1 l=0.5
X168 X1.X2.X1.X1.X2.X2.X3.vin2 a_19422_20446# X1.X2.X1.X1.X2.X2.vout vdd sky130_fd_pr__pfet_01v8 ad=0.29 pd=2.58 as=0.29 ps=2.58 w=1 l=0.5
X169 X1.X2.X2.X2.X1.X2.X2.vin1 a_25712_25076# X1.X2.X2.X2.X1.X2.X3.vin2 vdd sky130_fd_pr__pfet_01v8 ad=0.29 pd=2.58 as=0.29 ps=2.58 w=1 l=0.5
X170 a_2196_17540# d0 vss vss sky130_fd_pr__nfet_01v8 ad=0.122 pd=1.42 as=0.122 ps=1.42 w=0.42 l=0.5
X171 X2.X1.X2.X1.X1.X2.X3.vin1 a_39966_7922# X2.X1.X2.X1.X1.X2.X1.vin2 vdd sky130_fd_pr__pfet_01v8 ad=0.29 pd=2.58 as=0.29 ps=2.58 w=1 l=0.5
X172 X1.X2.X1.X3.vin1 a_19336_26164# X1.X2.X1.X1.X3.vin2 vss sky130_fd_pr__nfet_01v8 ad=0.122 pd=1.42 as=0.122 ps=1.42 w=0.42 l=0.5
X173 a_31862_23258# a_31476_23258# vdd vdd sky130_fd_pr__pfet_01v8 ad=0.29 pd=2.58 as=0.29 ps=2.58 w=1 l=0.5
X174 X2.X2.X1.X1.X1.X2.X3.vin1 a_48702_28070# X2.X2.X1.X1.X1.X2.vout vss sky130_fd_pr__nfet_01v8 ad=0.122 pd=1.42 as=0.122 ps=1.42 w=0.42 l=0.5
X175 X2.X2.X2.X1.X1.X2.X1.vin2 a_54992_7922# X2.X2.X2.X1.X1.X2.X3.vin1 vss sky130_fd_pr__nfet_01v8 ad=0.122 pd=1.42 as=0.122 ps=1.42 w=0.42 l=0.5
X176 X2.X2.X2.X2.X1.X1.vout a_52492_22210# X2.X2.X2.X2.X3.vin1 vdd sky130_fd_pr__pfet_01v8 ad=0.29 pd=2.58 as=0.29 ps=2.58 w=1 l=0.5
X177 X1.X1.X3.vin2 a_8186_18358# X1.X1.X2.X3.vin1 vss sky130_fd_pr__nfet_01v8 ad=0.122 pd=1.42 as=0.122 ps=1.42 w=0.42 l=0.5
X178 X2.X2.X1.X1.X1.X2.vrefh a_46502_30882# X2.X2.X1.X1.X1.X1.X3.vin2 vdd sky130_fd_pr__pfet_01v8 ad=0.29 pd=2.58 as=0.29 ps=2.58 w=1 l=0.5
X179 X1.X2.X1.X1.X2.X2.X2.vin1 a_17222_19446# X1.X2.X1.X1.X2.X2.X3.vin2 vss sky130_fd_pr__nfet_01v8 ad=0.122 pd=1.42 as=0.122 ps=1.42 w=0.42 l=0.5
X180 X1.X1.X2.X2.X2.X2.X3.vin1 a_10686_30794# X1.X1.X2.X2.X2.X2.X1.vin2 vdd sky130_fd_pr__pfet_01v8 ad=0.29 pd=2.58 as=0.29 ps=2.58 w=1 l=0.5
X181 X2.X1.X1.X1.X1.X2.X1.vin1 a_31862_28976# X2.X1.X1.X1.X1.X2.X3.vin1 vss sky130_fd_pr__nfet_01v8 ad=0.122 pd=1.42 as=0.122 ps=1.42 w=0.42 l=0.5
X182 X2.X1.X2.X2.X3.vin2 a_37466_29834# X2.X1.X2.X2.X2.X1.vout vss sky130_fd_pr__nfet_01v8 ad=0.122 pd=1.42 as=0.122 ps=1.42 w=0.42 l=0.5
X183 X2.X2.X2.X2.X2.X1.X1.vin2 a_54992_26982# X2.X2.X2.X2.X2.X1.X3.vin1 vss sky130_fd_pr__nfet_01v8 ad=0.122 pd=1.42 as=0.122 ps=1.42 w=0.42 l=0.5
X184 X2.X1.X2.X2.X1.X1.X1.vin2 a_40352_19358# X2.X1.X2.X2.X1.X1.X3.vin1 vss sky130_fd_pr__nfet_01v8 ad=0.122 pd=1.42 as=0.122 ps=1.42 w=0.42 l=0.5
X185 X1.X1.X1.X1.X3.vin1 a_4696_29936# X1.X1.X1.X1.X1.X2.vout vss sky130_fd_pr__nfet_01v8 ad=0.122 pd=1.42 as=0.122 ps=1.42 w=0.42 l=0.5
X186 vdd a_38152_8828# a_37766_8828# vdd sky130_fd_pr__pfet_01v8 ad=0.29 pd=2.58 as=0.29 ps=2.58 w=1 l=0.5
X187 X1.X1.X2.X2.X1.X2.X1.vin2 a_11072_23170# X1.X1.X2.X2.X1.X2.X3.vin1 vss sky130_fd_pr__nfet_01v8 ad=0.122 pd=1.42 as=0.122 ps=1.42 w=0.42 l=0.5
X188 a_33676_24258# d1 vss vss sky130_fd_pr__nfet_01v8 ad=0.122 pd=1.42 as=0.122 ps=1.42 w=0.42 l=0.5
X189 X1.X2.X1.X2.X2.X2.X1.vin2 a_17222_6104# X1.X2.X1.X2.X2.X2.X3.vin1 vdd sky130_fd_pr__pfet_01v8 ad=0.29 pd=2.58 as=0.29 ps=2.58 w=1 l=0.5
X190 X1.X1.X1.X2.X2.X1.X3.vin2 a_2196_8010# X1.X1.X1.X2.X2.X1.X2.vin1 vdd sky130_fd_pr__pfet_01v8 ad=0.29 pd=2.58 as=0.29 ps=2.58 w=1 l=0.5
X191 a_34062_12822# a_33676_12822# vss vss sky130_fd_pr__nfet_01v8 ad=0.122 pd=1.42 as=0.122 ps=1.42 w=0.42 l=0.5
X192 X2.X1.X1.X2.X1.X2.X1.vin2 X2.X1.X1.X2.X1.X2.X2.vin1 vss sky130_fd_pr__res_high_po_0p35 l=1.09
X193 vdd d1 a_8872_16452# vdd sky130_fd_pr__pfet_01v8 ad=0.29 pd=2.58 as=0.29 ps=2.58 w=1 l=0.5
X194 a_48316_16634# d1 vdd vdd sky130_fd_pr__pfet_01v8 ad=0.29 pd=2.58 as=0.29 ps=2.58 w=1 l=0.5
X195 vdd d1 a_23512_27888# vdd sky130_fd_pr__pfet_01v8 ad=0.29 pd=2.58 as=0.29 ps=2.58 w=1 l=0.5
X196 X2.X2.X1.X1.X2.X2.X3.vin1 a_48702_20446# X2.X2.X1.X1.X2.X2.vout vss sky130_fd_pr__nfet_01v8 ad=0.122 pd=1.42 as=0.122 ps=1.42 w=0.42 l=0.5
X197 X1.X2.X2.X2.X1.X2.vout a_23212_22210# X1.X2.X2.X2.X3.vin1 vss sky130_fd_pr__nfet_01v8 ad=0.122 pd=1.42 as=0.122 ps=1.42 w=0.42 l=0.5
X198 a_13696_892# d6 vdd vdd sky130_fd_pr__pfet_01v8 ad=0.29 pd=2.58 as=0.29 ps=2.58 w=1 l=0.5
X199 X1.X2.X1.X2.X2.X2.vout a_19036_5198# X1.X2.X1.X2.X2.X2.X3.vin2 vss sky130_fd_pr__nfet_01v8 ad=0.122 pd=1.42 as=0.122 ps=1.42 w=0.42 l=0.5
X200 X2.X2.X2.X1.X2.X1.vout a_52492_14586# X2.X2.X2.X1.X3.vin2 vdd sky130_fd_pr__pfet_01v8 ad=0.29 pd=2.58 as=0.29 ps=2.58 w=1 l=0.5
X201 a_16836_23258# d0 vdd vdd sky130_fd_pr__pfet_01v8 ad=0.29 pd=2.58 as=0.29 ps=2.58 w=1 l=0.5
X202 X2.X1.X2.X2.X3.vin1 a_37466_22210# X2.X1.X2.X2.X1.X2.vout vdd sky130_fd_pr__pfet_01v8 ad=0.29 pd=2.58 as=0.29 ps=2.58 w=1 l=0.5
X203 a_4396_5198# d1 vdd vdd sky130_fd_pr__pfet_01v8 ad=0.29 pd=2.58 as=0.29 ps=2.58 w=1 l=0.5
X204 X1.X1.X1.X2.X1.X2.vout a_4396_12822# X1.X1.X1.X2.X1.X2.X3.vin1 vdd sky130_fd_pr__pfet_01v8 ad=0.29 pd=2.58 as=0.29 ps=2.58 w=1 l=0.5
X205 vss a_54992_9828# a_54606_9828# vss sky130_fd_pr__nfet_01v8 ad=0.122 pd=1.42 as=0.122 ps=1.42 w=0.42 l=0.5
X206 X1.X1.X2.X2.X3.vin2 a_8572_25982# X1.X1.X2.X3.vin2 vss sky130_fd_pr__nfet_01v8 ad=0.122 pd=1.42 as=0.122 ps=1.42 w=0.42 l=0.5
X207 a_46116_11822# d0 vss vss sky130_fd_pr__nfet_01v8 ad=0.122 pd=1.42 as=0.122 ps=1.42 w=0.42 l=0.5
X208 X3.vin1 a_28482_892# vout vss sky130_fd_pr__nfet_01v8 ad=0.122 pd=1.42 as=0.122 ps=1.42 w=0.42 l=0.5
X209 vss a_25712_13640# a_25326_13640# vss sky130_fd_pr__nfet_01v8 ad=0.122 pd=1.42 as=0.122 ps=1.42 w=0.42 l=0.5
X210 X2.X2.X1.X2.vrefh X2.X2.X1.X1.X2.X2.X2.vin1 vss sky130_fd_pr__res_high_po_0p35 l=1.09
X211 X1.X2.X1.X1.X1.X2.X3.vin1 a_16836_28976# X1.X2.X1.X1.X1.X2.X1.vin2 vss sky130_fd_pr__nfet_01v8 ad=0.122 pd=1.42 as=0.122 ps=1.42 w=0.42 l=0.5
X212 vdd a_11072_13640# a_10686_13640# vdd sky130_fd_pr__pfet_01v8 ad=0.29 pd=2.58 as=0.29 ps=2.58 w=1 l=0.5
X213 X1.X2.X1.X1.X2.X2.vrefh X1.X2.X1.X1.X2.X1.X2.vin1 vss sky130_fd_pr__res_high_po_0p35 l=1.09
X214 X2.X1.X2.X2.X2.X1.X3.vin1 a_39966_26982# X2.X1.X2.X2.X2.X1.X1.vin1 vss sky130_fd_pr__nfet_01v8 ad=0.122 pd=1.42 as=0.122 ps=1.42 w=0.42 l=0.5
X215 X1.X2.X2.X2.X1.X1.X3.vin1 a_25326_19358# X1.X2.X2.X2.X1.X1.X1.vin1 vss sky130_fd_pr__nfet_01v8 ad=0.122 pd=1.42 as=0.122 ps=1.42 w=0.42 l=0.5
X216 a_31476_32788# d0 vss vss sky130_fd_pr__nfet_01v8 ad=0.122 pd=1.42 as=0.122 ps=1.42 w=0.42 l=0.5
X217 X2.X1.X2.X2.X1.X2.X3.vin2 a_38152_24076# X2.X1.X2.X2.X1.X2.vout vss sky130_fd_pr__nfet_01v8 ad=0.122 pd=1.42 as=0.122 ps=1.42 w=0.42 l=0.5
X218 a_5082_7064# a_4696_7064# vss vss sky130_fd_pr__nfet_01v8 ad=0.122 pd=1.42 as=0.122 ps=1.42 w=0.42 l=0.5
X219 a_19036_12822# d1 vss vss sky130_fd_pr__nfet_01v8 ad=0.122 pd=1.42 as=0.122 ps=1.42 w=0.42 l=0.5
X220 X2.X1.X2.X1.X1.X2.vout a_37852_6962# X2.X1.X2.X1.X3.vin1 vss sky130_fd_pr__nfet_01v8 ad=0.122 pd=1.42 as=0.122 ps=1.42 w=0.42 l=0.5
X221 X2.X2.X2.X1.X2.X2.vout a_52406_16452# X2.X2.X2.X1.X2.X2.X3.vin1 vss sky130_fd_pr__nfet_01v8 ad=0.122 pd=1.42 as=0.122 ps=1.42 w=0.42 l=0.5
X222 a_31476_17540# d0 vdd vdd sky130_fd_pr__pfet_01v8 ad=0.29 pd=2.58 as=0.29 ps=2.58 w=1 l=0.5
X223 X1.X1.X1.X1.X2.X1.X2.vin1 a_2582_23258# X1.X1.X1.X1.X2.X1.X3.vin2 vss sky130_fd_pr__nfet_01v8 ad=0.122 pd=1.42 as=0.122 ps=1.42 w=0.42 l=0.5
X224 a_46116_25164# d0 vdd vdd sky130_fd_pr__pfet_01v8 ad=0.29 pd=2.58 as=0.29 ps=2.58 w=1 l=0.5
X225 vss a_23212_25982# a_22826_25982# vss sky130_fd_pr__nfet_01v8 ad=0.122 pd=1.42 as=0.122 ps=1.42 w=0.42 l=0.5
X226 vss d0 a_25712_28888# vss sky130_fd_pr__nfet_01v8 ad=0.122 pd=1.42 as=0.122 ps=1.42 w=0.42 l=0.5
X227 X1.X2.X2.X2.X1.X2.X1.vin1 X1.X2.X2.X2.X1.X2.X1.vin2 vss sky130_fd_pr__res_high_po_0p35 l=1.09
X228 X2.X2.X1.X2.X1.X2.X1.vin2 a_46502_13728# X2.X2.X1.X2.X1.X2.X3.vin1 vdd sky130_fd_pr__pfet_01v8 ad=0.29 pd=2.58 as=0.29 ps=2.58 w=1 l=0.5
X229 X1.X1.X1.X1.X1.X2.vout a_5082_29936# X1.X1.X1.X1.X3.vin1 vdd sky130_fd_pr__pfet_01v8 ad=0.29 pd=2.58 as=0.29 ps=2.58 w=1 l=0.5
X230 a_2196_28976# d0 vss vss sky130_fd_pr__nfet_01v8 ad=0.122 pd=1.42 as=0.122 ps=1.42 w=0.42 l=0.5
X231 a_31476_8010# d0 vss vss sky130_fd_pr__nfet_01v8 ad=0.122 pd=1.42 as=0.122 ps=1.42 w=0.42 l=0.5
X232 X1.X2.X1.X1.X3.vin1 a_19336_29936# X1.X2.X1.X1.X1.X2.vout vss sky130_fd_pr__nfet_01v8 ad=0.122 pd=1.42 as=0.122 ps=1.42 w=0.42 l=0.5
X233 vss d1 a_38152_5016# vss sky130_fd_pr__nfet_01v8 ad=0.122 pd=1.42 as=0.122 ps=1.42 w=0.42 l=0.5
X234 vss d0 a_40352_4110# vss sky130_fd_pr__nfet_01v8 ad=0.122 pd=1.42 as=0.122 ps=1.42 w=0.42 l=0.5
X235 X2.X1.X2.X1.X3.vin2 a_37466_14586# X2.X1.X2.X1.X2.X2.vout vdd sky130_fd_pr__pfet_01v8 ad=0.29 pd=2.58 as=0.29 ps=2.58 w=1 l=0.5
X236 vdd a_25712_21264# a_25326_21264# vdd sky130_fd_pr__pfet_01v8 ad=0.29 pd=2.58 as=0.29 ps=2.58 w=1 l=0.5
X237 a_4696_7064# d2 vdd vdd sky130_fd_pr__pfet_01v8 ad=0.29 pd=2.58 as=0.29 ps=2.58 w=1 l=0.5
X238 X2.X1.X1.X1.X2.X1.X3.vin2 a_34062_24258# X2.X1.X1.X1.X2.X1.vout vdd sky130_fd_pr__pfet_01v8 ad=0.29 pd=2.58 as=0.29 ps=2.58 w=1 l=0.5
X239 a_34062_9010# a_33676_9010# vdd vdd sky130_fd_pr__pfet_01v8 ad=0.29 pd=2.58 as=0.29 ps=2.58 w=1 l=0.5
X240 a_31476_9916# d0 vdd vdd sky130_fd_pr__pfet_01v8 ad=0.29 pd=2.58 as=0.29 ps=2.58 w=1 l=0.5
X241 a_4782_20446# a_4396_20446# vdd vdd sky130_fd_pr__pfet_01v8 ad=0.29 pd=2.58 as=0.29 ps=2.58 w=1 l=0.5
X242 X1.X1.X1.X1.X1.X2.vrefh X1.X1.X1.X1.X1.X1.X2.vin1 vss sky130_fd_pr__res_high_po_0p35 l=1.09
X243 X2.X1.X1.X2.X2.X1.X3.vin1 a_31476_9916# X2.X1.X1.X2.X2.X1.X1.vin2 vss sky130_fd_pr__nfet_01v8 ad=0.122 pd=1.42 as=0.122 ps=1.42 w=0.42 l=0.5
X244 X2.X2.X2.X2.X1.X2.vout a_52406_24076# X2.X2.X2.X2.X1.X2.X3.vin2 vdd sky130_fd_pr__pfet_01v8 ad=0.29 pd=2.58 as=0.29 ps=2.58 w=1 l=0.5
X245 X1.X2.X2.X1.X1.X1.X2.vin1 X1.X2.X2.X1.X1.X2.vrefh vss sky130_fd_pr__res_high_po_0p35 l=1.09
X246 X2.X1.X2.X2.X2.X1.vout a_37852_29834# X2.X1.X2.X2.X3.vin2 vdd sky130_fd_pr__pfet_01v8 ad=0.29 pd=2.58 as=0.29 ps=2.58 w=1 l=0.5
X247 X2.X1.X1.X2.X2.X1.X1.vin2 X2.X1.X1.X2.X2.X1.X2.vin1 vss sky130_fd_pr__res_high_po_0p35 l=1.09
X248 X2.X1.X2.X2.X2.X2.X1.vin1 X2.X1.X2.X2.X2.X2.vrefh vss sky130_fd_pr__res_high_po_0p35 l=1.09
X249 vdd a_40352_28888# a_39966_28888# vdd sky130_fd_pr__pfet_01v8 ad=0.29 pd=2.58 as=0.29 ps=2.58 w=1 l=0.5