* NGSPICE file created from 8bit_dac.ext - technology: sky130B

.subckt x8bit_dac vrefh vrefl d0 d1 d2 d3 d4 d5 d6 d7 vout vss vdd
X0 X1.X2.X1.X2.X3.vin2 a_19722_10916# X1.X2.X1.X3.vin2 vdd.t1362 sky130_fd_pr__pfet_01v8 ad=0.29 pd=2.58 as=0.29 ps=2.58 w=1 l=0.5
X1 X1.X1.X1.X2.X1.X2.X1.vin2 a_2582_13728# X1.X1.X1.X2.X1.X2.X3.vin1 vdd.t360 sky130_fd_pr__pfet_01v8 ad=0.29 pd=2.58 as=0.29 ps=2.58 w=1 l=0.5
X2 X2.X2.X2.X1.X1.X2.X1.vin1 X2.X2.X2.X1.X1.X2.X1.vin2 vss.t79 sky130_fd_pr__res_high_po_0p35 l=1.09
X3 X2.X2.X1.X2.X1.X1.X3.vin2 a_46116_15634# X2.X2.X1.X2.X1.X2.vrefh vss.t288 sky130_fd_pr__nfet_01v8 ad=0.122 pd=1.42 as=0.122 ps=1.42 w=0.42 l=0.5
X4 X2.X2.X1.X3.vin1 a_49002_18540# X2.X2.X3.vin1 vss.t757 sky130_fd_pr__nfet_01v8 ad=0.122 pd=1.42 as=0.122 ps=1.42 w=0.42 l=0.5
X5 vdd.t128 a_11072_4110# a_10686_4110# vdd.t127 sky130_fd_pr__pfet_01v8 ad=0.29 pd=2.58 as=0.29 ps=2.58 w=1 l=0.5
X6 a_46502_9916# a_46116_9916# vdd.t125 vdd.t124 sky130_fd_pr__pfet_01v8 ad=0.29 pd=2.58 as=0.29 ps=2.58 w=1 l=0.5
X7 X2.X1.X1.X1.X1.X2.X3.vin1 a_31476_28976# X2.X1.X1.X1.X1.X2.X1.vin2 vss.t1425 sky130_fd_pr__nfet_01v8 ad=0.122 pd=1.42 as=0.122 ps=1.42 w=0.42 l=0.5
X8 vss.t684 a_52492_18358# a_52106_18358# vss.t683 sky130_fd_pr__nfet_01v8 ad=0.122 pd=1.42 as=0.122 ps=1.42 w=0.42 l=0.5
X9 X1.X2.X2.X2.X1.X1.X3.vin2 a_23512_20264# X1.X2.X2.X2.X1.X1.vout vss.t672 sky130_fd_pr__nfet_01v8 ad=0.122 pd=1.42 as=0.122 ps=1.42 w=0.42 l=0.5
X10 a_35312_892# a_34926_892# vdd.t1430 vdd.t1429 sky130_fd_pr__pfet_01v8 ad=0.29 pd=2.58 as=0.29 ps=2.58 w=1 l=0.5
X11 a_2582_13728# a_2196_13728# vss.t755 vss.t754 sky130_fd_pr__nfet_01v8 ad=0.122 pd=1.42 as=0.122 ps=1.42 w=0.42 l=0.5
X12 a_16836_25164# d0.t0 vss.t634 vss.t633 sky130_fd_pr__nfet_01v8 ad=0.122 pd=1.42 as=0.122 ps=1.42 w=0.42 l=0.5
X13 vdd.t283 a_8872_16452# a_8486_16452# vdd.t282 sky130_fd_pr__pfet_01v8 ad=0.29 pd=2.58 as=0.29 ps=2.58 w=1 l=0.5
X14 a_33676_12822# d1.t0 vss.t788 vss.t787 sky130_fd_pr__nfet_01v8 ad=0.122 pd=1.42 as=0.122 ps=1.42 w=0.42 l=0.5
X15 X1.X1.X2.X1.X2.X1.X1.vin2 a_11072_11734# X1.X1.X2.X1.X2.X1.X3.vin1 vss.t1431 sky130_fd_pr__nfet_01v8 ad=0.122 pd=1.42 as=0.122 ps=1.42 w=0.42 l=0.5
X16 X2.X2.X1.X1.X1.X2.X3.vin1 a_46116_28976# X2.X2.X1.X1.X1.X2.X1.vin1 vdd.t957 sky130_fd_pr__pfet_01v8 ad=0.29 pd=2.58 as=0.29 ps=2.58 w=1 l=0.5
X17 a_46502_4198# a_46116_4198# vdd.t832 vdd.t831 sky130_fd_pr__pfet_01v8 ad=0.29 pd=2.58 as=0.29 ps=2.58 w=1 l=0.5
X18 X2.X1.X2.X2.X2.X2.X2.vin1 X2.X2.vrefh vss.t90 sky130_fd_pr__res_high_po_0p35 l=1.09
X19 X2.X2.X2.X1.X1.X2.X3.vin1 a_54606_7922# X2.X2.X2.X1.X1.X2.X1.vin2 vdd.t1447 sky130_fd_pr__pfet_01v8 ad=0.29 pd=2.58 as=0.29 ps=2.58 w=1 l=0.5
X20 X2.X1.X1.X1.X2.X2.X3.vin2 a_34062_20446# X2.X1.X1.X1.X2.X2.vout vdd.t1258 sky130_fd_pr__pfet_01v8 ad=0.29 pd=2.58 as=0.29 ps=2.58 w=1 l=0.5
X21 X2.X2.X2.X2.X1.X2.X1.vin1 a_54992_23170# X2.X2.X2.X2.X1.X2.X3.vin1 vdd.t1370 sky130_fd_pr__pfet_01v8 ad=0.29 pd=2.58 as=0.29 ps=2.58 w=1 l=0.5
X22 X2.X1.X2.X2.X1.X1.vout a_37766_20264# X2.X1.X2.X2.X1.X1.X3.vin2 vdd.t1412 sky130_fd_pr__pfet_01v8 ad=0.29 pd=2.58 as=0.29 ps=2.58 w=1 l=0.5
X23 a_16836_4198# d0.t1 vss.t636 vss.t635 sky130_fd_pr__nfet_01v8 ad=0.122 pd=1.42 as=0.122 ps=1.42 w=0.42 l=0.5
X24 X1.X2.X2.X1.X1.X1.vout a_23126_5016# X1.X2.X2.X1.X1.X1.X3.vin1 vss.t1291 sky130_fd_pr__nfet_01v8 ad=0.122 pd=1.42 as=0.122 ps=1.42 w=0.42 l=0.5
X25 X2.X2.X1.X2.X3.vin1 a_49002_10916# X2.X2.X1.X3.vin2 vss.t1426 sky130_fd_pr__nfet_01v8 ad=0.122 pd=1.42 as=0.122 ps=1.42 w=0.42 l=0.5
X26 X1.X1.X1.X2.X1.X1.X3.vin2 a_4782_16634# X1.X1.X1.X2.X1.X1.vout vdd.t1366 sky130_fd_pr__pfet_01v8 ad=0.29 pd=2.58 as=0.29 ps=2.58 w=1 l=0.5
X27 X1.X1.X2.X1.X1.X1.X1.vin1 X1.X1.X2.X1.X1.X1.X1.vin2 vss.t242 sky130_fd_pr__res_high_po_0p35 l=1.09
X28 vss.t1369 d0.t2 a_54992_13640# vss.t1368 sky130_fd_pr__nfet_01v8 ad=0.122 pd=1.42 as=0.122 ps=1.42 w=0.42 l=0.5
X29 vdd.t887 a_23212_6962# a_22826_6962# vdd.t886 sky130_fd_pr__pfet_01v8 ad=0.29 pd=2.58 as=0.29 ps=2.58 w=1 l=0.5
X30 a_46502_15634# a_46116_15634# vss.t287 vss.t286 sky130_fd_pr__nfet_01v8 ad=0.122 pd=1.42 as=0.122 ps=1.42 w=0.42 l=0.5
X31 vss.t1371 d0.t3 a_25712_17452# vss.t1370 sky130_fd_pr__nfet_01v8 ad=0.122 pd=1.42 as=0.122 ps=1.42 w=0.42 l=0.5
X32 X1.X1.X2.X3.vin2 a_8186_25982# X1.X1.X2.X2.X3.vin1 vss.t1397 sky130_fd_pr__nfet_01v8 ad=0.122 pd=1.42 as=0.122 ps=1.42 w=0.42 l=0.5
X33 a_17222_19446# a_16836_19446# vss.t1536 vss.t1535 sky130_fd_pr__nfet_01v8 ad=0.122 pd=1.42 as=0.122 ps=1.42 w=0.42 l=0.5
X34 X2.X1.X1.X1.X2.X1.vout a_34362_22312# X2.X1.X1.X1.X3.vin2 vss.t812 sky130_fd_pr__nfet_01v8 ad=0.122 pd=1.42 as=0.122 ps=1.42 w=0.42 l=0.5
X35 X1.X2.X1.X1.X1.X2.X3.vin2 a_19422_28070# X1.X2.X1.X1.X1.X2.vout vdd.t658 sky130_fd_pr__pfet_01v8 ad=0.29 pd=2.58 as=0.29 ps=2.58 w=1 l=0.5
X36 vdd.t1341 d0.t4 a_11072_17452# vdd.t1340 sky130_fd_pr__pfet_01v8 ad=0.29 pd=2.58 as=0.29 ps=2.58 w=1 l=0.5
X37 X2.X1.X1.X2.X2.X2.X1.vin2 a_31862_6104# X2.X1.X1.X2.X2.X2.X3.vin1 vdd.t441 sky130_fd_pr__pfet_01v8 ad=0.29 pd=2.58 as=0.29 ps=2.58 w=1 l=0.5
X38 X1.X1.X1.X1.X1.X1.X3.vin2 a_2196_30882# X1.X1.X1.X1.X1.X1.X2.vin1 vdd.t1087 sky130_fd_pr__pfet_01v8 ad=0.29 pd=2.58 as=0.29 ps=2.58 w=1 l=0.5
X39 X1.X2.X2.X2.X1.X2.X1.vin2 a_25712_23170# X1.X2.X2.X2.X1.X2.X3.vin1 vss.t902 sky130_fd_pr__nfet_01v8 ad=0.122 pd=1.42 as=0.122 ps=1.42 w=0.42 l=0.5
X40 a_19422_31882# a_19036_31882# vdd.t1081 vdd.t1080 sky130_fd_pr__pfet_01v8 ad=0.29 pd=2.58 as=0.29 ps=2.58 w=1 l=0.5
X41 X2.X2.X2.X2.X2.X1.vout a_52492_29834# X2.X2.X2.X2.X3.vin2 vdd.t118 sky130_fd_pr__pfet_01v8 ad=0.29 pd=2.58 as=0.29 ps=2.58 w=1 l=0.5
X42 X2.X2.vrefh X2.X2.X1.X1.X1.X1.X1.vin1 vss.t76 sky130_fd_pr__res_high_po_0p35 l=1.09
X43 X2.X2.X1.X1.X2.X2.vout a_49002_22312# X2.X2.X1.X1.X3.vin2 vdd.t1106 sky130_fd_pr__pfet_01v8 ad=0.29 pd=2.58 as=0.29 ps=2.58 w=1 l=0.5
X44 a_46502_28976# a_46116_28976# vdd.t956 vdd.t955 sky130_fd_pr__pfet_01v8 ad=0.29 pd=2.58 as=0.29 ps=2.58 w=1 l=0.5
X45 vdd.t845 d1.t1 a_38152_27888# vdd.t844 sky130_fd_pr__pfet_01v8 ad=0.29 pd=2.58 as=0.29 ps=2.58 w=1 l=0.5
X46 a_4782_31882# a_4396_31882# vss.t251 vss.t250 sky130_fd_pr__nfet_01v8 ad=0.122 pd=1.42 as=0.122 ps=1.42 w=0.42 l=0.5
X47 vdd.t1343 d0.t5 a_25712_9828# vdd.t1342 sky130_fd_pr__pfet_01v8 ad=0.29 pd=2.58 as=0.29 ps=2.58 w=1 l=0.5
X48 X1.X1.X1.X2.X1.X2.X2.vin1 a_2582_11822# X1.X1.X1.X2.X1.X2.X3.vin2 vss.t300 sky130_fd_pr__nfet_01v8 ad=0.122 pd=1.42 as=0.122 ps=1.42 w=0.42 l=0.5
X49 vss.t898 a_25712_28888# a_25326_28888# vss.t897 sky130_fd_pr__nfet_01v8 ad=0.122 pd=1.42 as=0.122 ps=1.42 w=0.42 l=0.5
X50 X2.X2.X2.X1.X2.X2.X2.vin1 X2.X2.X2.X1.X2.X2.X1.vin2 vss.t79 sky130_fd_pr__res_high_po_0p35 l=1.09
X51 X1.X2.X1.X2.vrefh a_17222_19446# X1.X2.X1.X1.X2.X2.X3.vin2 vdd.t1108 sky130_fd_pr__pfet_01v8 ad=0.29 pd=2.58 as=0.29 ps=2.58 w=1 l=0.5
X52 a_2582_32788# a_2196_32788# vdd.t1084 vdd.t1083 sky130_fd_pr__pfet_01v8 ad=0.29 pd=2.58 as=0.29 ps=2.58 w=1 l=0.5
X53 X2.X2.X2.X2.X2.X2.X3.vin1 a_52792_31700# X2.X2.X2.X2.X2.X2.vout vdd.t877 sky130_fd_pr__pfet_01v8 ad=0.29 pd=2.58 as=0.29 ps=2.58 w=1 l=0.5
X54 X1.X2.X1.X1.X2.X2.vout a_19036_20446# X1.X2.X1.X1.X2.X2.X3.vin1 vdd.t640 sky130_fd_pr__pfet_01v8 ad=0.29 pd=2.58 as=0.29 ps=2.58 w=1 l=0.5
X55 X2.X1.X2.X2.X1.X2.X3.vin1 a_39966_23170# X2.X1.X2.X2.X1.X2.X1.vin2 vdd.t114 sky130_fd_pr__pfet_01v8 ad=0.29 pd=2.58 as=0.29 ps=2.58 w=1 l=0.5
X56 X2.X2.X2.X2.X2.X2.X3.vin2 a_54606_32700# vrefl.t1 vdd.t1423 sky130_fd_pr__pfet_01v8 ad=0.29 pd=2.58 as=0.29 ps=2.58 w=1 l=0.5
X57 X2.X2.X2.X2.X2.X2.X3.vin1 a_54606_30794# X2.X2.X2.X2.X2.X2.X1.vin1 vss.t971 sky130_fd_pr__nfet_01v8 ad=0.122 pd=1.42 as=0.122 ps=1.42 w=0.42 l=0.5
X58 X1.X2.X2.X1.X2.X1.X1.vin1 X1.X2.X2.X1.X2.X1.X1.vin2 vss.t27 sky130_fd_pr__res_high_po_0p35 l=1.09
X59 a_5082_18540# a_4696_18540# vdd.t1418 vdd.t1417 sky130_fd_pr__pfet_01v8 ad=0.29 pd=2.58 as=0.29 ps=2.58 w=1 l=0.5
X60 X1.X1.X1.X1.X3.vin1 a_4696_29936# X1.X1.X1.X1.X1.X1.vout vdd.t653 sky130_fd_pr__pfet_01v8 ad=0.29 pd=2.58 as=0.29 ps=2.58 w=1 l=0.5
X61 vdd.t1345 d0.t6 a_54992_21264# vdd.t1344 sky130_fd_pr__pfet_01v8 ad=0.29 pd=2.58 as=0.29 ps=2.58 w=1 l=0.5
X62 vdd.t1347 d0.t7 a_25712_25076# vdd.t1346 sky130_fd_pr__pfet_01v8 ad=0.29 pd=2.58 as=0.29 ps=2.58 w=1 l=0.5
X63 a_4782_5198# a_4396_5198# vss.t974 vss.t973 sky130_fd_pr__nfet_01v8 ad=0.122 pd=1.42 as=0.122 ps=1.42 w=0.42 l=0.5
X64 vdd.t1155 d3.t0 a_23212_10734# vdd.t1154 sky130_fd_pr__pfet_01v8 ad=0.29 pd=2.58 as=0.29 ps=2.58 w=1 l=0.5
X65 X1.X1.X1.X1.X2.X1.X1.vin2 a_2582_25164# X1.X1.X1.X1.X2.X1.X3.vin1 vdd.t960 sky130_fd_pr__pfet_01v8 ad=0.29 pd=2.58 as=0.29 ps=2.58 w=1 l=0.5
X66 vss.t1442 a_40352_15546# a_39966_15546# vss.t1441 sky130_fd_pr__nfet_01v8 ad=0.122 pd=1.42 as=0.122 ps=1.42 w=0.42 l=0.5
X67 X2.X1.X1.X1.X2.X2.X1.vin2 X2.X1.X1.X1.X2.X2.X1.vin1 vss.t77 sky130_fd_pr__res_high_po_0p35 l=1.09
X68 X2.X1.X1.X1.X2.X1.vout a_33676_24258# X2.X1.X1.X1.X2.X1.X3.vin1 vdd.t330 sky130_fd_pr__pfet_01v8 ad=0.29 pd=2.58 as=0.29 ps=2.58 w=1 l=0.5
X69 a_5646_892# d5.t0 vss.t36 vss.t35 sky130_fd_pr__nfet_01v8 ad=0.122 pd=1.42 as=0.122 ps=1.42 w=0.42 l=0.5
X70 a_4396_20446# d1.t2 vdd.t847 vdd.t846 sky130_fd_pr__pfet_01v8 ad=0.29 pd=2.58 as=0.29 ps=2.58 w=1 l=0.5
X71 X2.X1.X1.X3.vin1 a_33976_26164# X2.X1.X1.X1.X3.vin1 vdd.t1517 sky130_fd_pr__pfet_01v8 ad=0.29 pd=2.58 as=0.29 ps=2.58 w=1 l=0.5
X72 X2.X1.X2.X2.X3.vin2 a_37466_29834# X2.X1.X2.X2.X2.X2.vout vdd.t660 sky130_fd_pr__pfet_01v8 ad=0.29 pd=2.58 as=0.29 ps=2.58 w=1 l=0.5
X73 a_5082_10916# a_4696_10916# vdd.t1365 vdd.t1364 sky130_fd_pr__pfet_01v8 ad=0.29 pd=2.58 as=0.29 ps=2.58 w=1 l=0.5
X74 X2.X1.X2.X2.X1.X1.X1.vin1 a_40352_19358# X2.X1.X2.X2.X1.X1.X3.vin1 vdd.t421 sky130_fd_pr__pfet_01v8 ad=0.29 pd=2.58 as=0.29 ps=2.58 w=1 l=0.5
X75 a_17222_6104# a_16836_6104# vss.t372 vss.t371 sky130_fd_pr__nfet_01v8 ad=0.122 pd=1.42 as=0.122 ps=1.42 w=0.42 l=0.5
X76 X1.X2.X1.X1.X2.X1.X1.vin1 a_17222_25164# X1.X2.X1.X1.X2.X1.X3.vin1 vss.t1133 sky130_fd_pr__nfet_01v8 ad=0.122 pd=1.42 as=0.122 ps=1.42 w=0.42 l=0.5
X77 X2.X1.X1.X2.X2.X1.vout a_34362_7064# X2.X1.X1.X2.X3.vin2 vss.t339 sky130_fd_pr__nfet_01v8 ad=0.122 pd=1.42 as=0.122 ps=1.42 w=0.42 l=0.5
X78 X1.X1.X2.X2.X1.X2.X1.vin1 X1.X1.X2.X2.X1.X2.vrefh vss.t83 sky130_fd_pr__res_high_po_0p35 l=1.09
X79 vrefl.t2 a_54992_32700# X2.X2.X2.X2.X2.X2.X3.vin2 vss.t1462 sky130_fd_pr__nfet_01v8 ad=0.122 pd=1.42 as=0.122 ps=1.42 w=0.42 l=0.5
X80 X2.X1.X2.X2.X2.X2.vout a_37766_31700# X2.X1.X2.X2.X2.X2.X3.vin2 vdd.t1411 sky130_fd_pr__pfet_01v8 ad=0.29 pd=2.58 as=0.29 ps=2.58 w=1 l=0.5
X81 vdd.t252 a_23512_8828# a_23126_8828# vdd.t251 sky130_fd_pr__pfet_01v8 ad=0.29 pd=2.58 as=0.29 ps=2.58 w=1 l=0.5
X82 X1.X2.X1.X1.X1.X1.X1.vin2 X1.X2.X1.X1.X1.X1.X2.vin1 vss.t25 sky130_fd_pr__res_high_po_0p35 l=1.09
X83 X1.X1.X2.X1.X1.X1.X3.vin1 a_8872_5016# X1.X1.X2.X1.X1.X1.vout vdd.t288 sky130_fd_pr__pfet_01v8 ad=0.29 pd=2.58 as=0.29 ps=2.58 w=1 l=0.5
X84 X1.X1.X1.X2.X1.X2.X3.vin1 a_2196_13728# X1.X1.X1.X2.X1.X2.X1.vin1 vdd.t727 sky130_fd_pr__pfet_01v8 ad=0.29 pd=2.58 as=0.29 ps=2.58 w=1 l=0.5
X85 X2.X1.X1.X2.X2.X2.X3.vin2 a_34062_5198# X2.X1.X1.X2.X2.X2.vout vdd.t1367 sky130_fd_pr__pfet_01v8 ad=0.29 pd=2.58 as=0.29 ps=2.58 w=1 l=0.5
X86 a_31862_19446# a_31476_19446# vss.t2 vss.t1 sky130_fd_pr__nfet_01v8 ad=0.122 pd=1.42 as=0.122 ps=1.42 w=0.42 l=0.5
X87 X1.X1.X2.X2.X2.X1.vout a_8486_27888# X1.X1.X2.X2.X2.X1.X3.vin2 vdd.t49 sky130_fd_pr__pfet_01v8 ad=0.29 pd=2.58 as=0.29 ps=2.58 w=1 l=0.5
X88 X2.X2.X2.X1.X1.X1.X3.vin1 a_52792_5016# X2.X2.X2.X1.X1.X1.vout vdd.t1224 sky130_fd_pr__pfet_01v8 ad=0.29 pd=2.58 as=0.29 ps=2.58 w=1 l=0.5
X89 X2.X2.X2.X1.X2.X1.X1.vin1 X2.X2.X2.X1.X2.vrefh vss.t79 sky130_fd_pr__res_high_po_0p35 l=1.09
X90 X2.X2.X2.vrefh.t2 a_46502_4198# X2.X2.X1.X2.X2.X2.X3.vin2 vdd.t1123 sky130_fd_pr__pfet_01v8 ad=0.29 pd=2.58 as=0.29 ps=2.58 w=1 l=0.5
X91 vdd.t410 a_54992_7922# a_54606_7922# vdd.t409 sky130_fd_pr__pfet_01v8 ad=0.29 pd=2.58 as=0.29 ps=2.58 w=1 l=0.5
X92 vss.t763 a_11072_6016# a_10686_6016# vss.t762 sky130_fd_pr__nfet_01v8 ad=0.122 pd=1.42 as=0.122 ps=1.42 w=0.42 l=0.5
X93 X2.X1.X2.X1.X1.X1.X2.vin1 X2.X1.X2.X1.X1.X2.vrefh vss.t90 sky130_fd_pr__res_high_po_0p35 l=1.09
X94 X2.X2.X1.X2.X2.X1.X1.vin2 X2.X2.X1.X2.X2.X1.X2.vin1 vss.t76 sky130_fd_pr__res_high_po_0p35 l=1.09
X95 a_34062_31882# a_33676_31882# vdd.t715 vdd.t714 sky130_fd_pr__pfet_01v8 ad=0.29 pd=2.58 as=0.29 ps=2.58 w=1 l=0.5
X96 X1.X2.X1.X1.X3.vin1 a_19336_29936# X1.X2.X1.X1.X1.X1.vout vdd.t764 sky130_fd_pr__pfet_01v8 ad=0.29 pd=2.58 as=0.29 ps=2.58 w=1 l=0.5
X97 vss.t1373 d0.t8 a_11072_26982# vss.t1372 sky130_fd_pr__nfet_01v8 ad=0.122 pd=1.42 as=0.122 ps=1.42 w=0.42 l=0.5
X98 X1.X2.X2.X2.X2.X2.X2.vin1 X1.X2.X2.X2.X2.X2.X1.vin2 vss.t27 sky130_fd_pr__res_high_po_0p35 l=1.09
X99 X1.X1.X2.X2.X2.X2.X1.vin1 a_11072_30794# X1.X1.X2.X2.X2.X2.X3.vin1 vdd.t509 sky130_fd_pr__pfet_01v8 ad=0.29 pd=2.58 as=0.29 ps=2.58 w=1 l=0.5
X100 X2.X1.X1.X2.X2.vrefh a_31862_11822# X2.X1.X1.X2.X1.X2.X3.vin2 vdd.t1026 sky130_fd_pr__pfet_01v8 ad=0.29 pd=2.58 as=0.29 ps=2.58 w=1 l=0.5
X101 X1.X1.X2.X1.X2.X1.X3.vin1 a_10686_11734# X1.X1.X2.X1.X2.X1.X1.vin1 vss.t983 sky130_fd_pr__nfet_01v8 ad=0.122 pd=1.42 as=0.122 ps=1.42 w=0.42 l=0.5
X102 X2.X2.X2.X1.X2.X2.X3.vin1 a_54606_15546# X2.X2.X2.X1.X2.X2.X1.vin2 vdd.t65 sky130_fd_pr__pfet_01v8 ad=0.29 pd=2.58 as=0.29 ps=2.58 w=1 l=0.5
X103 X1.X2.X2.X2.X1.X1.X3.vin1 a_25326_19358# X1.X2.X2.X2.X1.X1.X1.vin2 vdd.t536 sky130_fd_pr__pfet_01v8 ad=0.29 pd=2.58 as=0.29 ps=2.58 w=1 l=0.5
X104 vss.t548 a_25712_19358# a_25326_19358# vss.t547 sky130_fd_pr__nfet_01v8 ad=0.122 pd=1.42 as=0.122 ps=1.42 w=0.42 l=0.5
X105 a_4782_28070# a_4396_28070# vdd.t782 vdd.t781 sky130_fd_pr__pfet_01v8 ad=0.29 pd=2.58 as=0.29 ps=2.58 w=1 l=0.5
X106 vss.t402 a_52792_16452# a_52406_16452# vss.t401 sky130_fd_pr__nfet_01v8 ad=0.122 pd=1.42 as=0.122 ps=1.42 w=0.42 l=0.5
X107 X2.X1.X2.X2.X2.X2.X3.vin2 a_39966_32700# X2.X1.X2.X2.X2.X2.X2.vin1 vss.t277 sky130_fd_pr__nfet_01v8 ad=0.122 pd=1.42 as=0.122 ps=1.42 w=0.42 l=0.5
X108 a_48316_28070# d1.t3 vss.t873 vss.t872 sky130_fd_pr__nfet_01v8 ad=0.122 pd=1.42 as=0.122 ps=1.42 w=0.42 l=0.5
X109 X2.X2.X1.X2.X1.X2.X1.vin2 X2.X2.X1.X2.X1.X2.X1.vin1 vss.t76 sky130_fd_pr__res_high_po_0p35 l=1.09
X110 vdd.t1349 d0.t9 a_54992_32700# vdd.t1348 sky130_fd_pr__pfet_01v8 ad=0.29 pd=2.58 as=0.29 ps=2.58 w=1 l=0.5
X111 X1.X3.vin2 a_20286_892# X1.X2.X3.vin1.t1 vdd.t709 sky130_fd_pr__pfet_01v8 ad=0.29 pd=2.58 as=0.29 ps=2.58 w=1 l=0.5
X112 X1.X2.X1.X2.X1.X1.X1.vin2 X1.X2.X1.X2.X1.X1.X1.vin1 vss.t25 sky130_fd_pr__res_high_po_0p35 l=1.09
X113 a_46116_30882# d0.t10 vdd.t1351 vdd.t1350 sky130_fd_pr__pfet_01v8 ad=0.29 pd=2.58 as=0.29 ps=2.58 w=1 l=0.5
X114 vss.t1375 d0.t11 a_54992_30794# vss.t1374 sky130_fd_pr__nfet_01v8 ad=0.122 pd=1.42 as=0.122 ps=1.42 w=0.42 l=0.5
X115 a_49002_18540# a_48616_18540# vss.t640 vss.t639 sky130_fd_pr__nfet_01v8 ad=0.122 pd=1.42 as=0.122 ps=1.42 w=0.42 l=0.5
X116 X2.X1.X1.X1.X3.vin2 a_33976_22312# X2.X1.X1.X1.X2.X2.vout vss.t1539 sky130_fd_pr__nfet_01v8 ad=0.122 pd=1.42 as=0.122 ps=1.42 w=0.42 l=0.5
X117 a_17222_23258# a_16836_23258# vdd.t757 vdd.t756 sky130_fd_pr__pfet_01v8 ad=0.29 pd=2.58 as=0.29 ps=2.58 w=1 l=0.5
X118 a_16836_19446# d0.t12 vss.t1377 vss.t1376 sky130_fd_pr__nfet_01v8 ad=0.122 pd=1.42 as=0.122 ps=1.42 w=0.42 l=0.5
X119 X1.X2.X1.X2.X2.X1.X3.vin2 a_16836_8010# X1.X2.X1.X2.X2.X1.X2.vin1 vdd.t546 sky130_fd_pr__pfet_01v8 ad=0.29 pd=2.58 as=0.29 ps=2.58 w=1 l=0.5
X120 X1.X2.X2.X1.X2.X2.X2.vin1 X1.X2.X2.X2.vrefh vss.t27 sky130_fd_pr__res_high_po_0p35 l=1.09
X121 a_19036_31882# d1.t4 vdd.t849 vdd.t848 sky130_fd_pr__pfet_01v8 ad=0.29 pd=2.58 as=0.29 ps=2.58 w=1 l=0.5
X122 X2.X1.X1.X2.X1.X1.X1.vin1 a_31862_17540# X2.X1.X1.X2.X1.X1.X3.vin1 vss.t146 sky130_fd_pr__nfet_01v8 ad=0.122 pd=1.42 as=0.122 ps=1.42 w=0.42 l=0.5
X123 X2.X2.X2.X1.X2.X2.X2.vin1 a_54992_17452# X2.X2.X2.X1.X2.X2.X3.vin2 vdd.t160 sky130_fd_pr__pfet_01v8 ad=0.29 pd=2.58 as=0.29 ps=2.58 w=1 l=0.5
X124 X1.X2.X1.X2.X1.X2.X3.vin2 a_16836_11822# X1.X2.X1.X2.X1.X2.X2.vin1 vdd.t401 sky130_fd_pr__pfet_01v8 ad=0.29 pd=2.58 as=0.29 ps=2.58 w=1 l=0.5
X125 X1.X1.X1.X3.vin1 a_4696_26164# X1.X1.X1.X1.X3.vin2 vss.t1415 sky130_fd_pr__nfet_01v8 ad=0.122 pd=1.42 as=0.122 ps=1.42 w=0.42 l=0.5
X126 vss.t1152 d4.t0 a_37852_18358# vss.t1151 sky130_fd_pr__nfet_01v8 ad=0.122 pd=1.42 as=0.122 ps=1.42 w=0.42 l=0.5
X127 a_48316_20446# d1.t5 vss.t875 vss.t874 sky130_fd_pr__nfet_01v8 ad=0.122 pd=1.42 as=0.122 ps=1.42 w=0.42 l=0.5
X128 X2.X1.X2.X2.X2.X2.vrefh a_40352_28888# X2.X1.X2.X2.X2.X1.X3.vin2 vss.t748 sky130_fd_pr__nfet_01v8 ad=0.122 pd=1.42 as=0.122 ps=1.42 w=0.42 l=0.5
X129 X1.X2.X2.X2.X2.X1.vout a_23126_27888# X1.X2.X2.X2.X2.X1.X3.vin2 vdd.t1112 sky130_fd_pr__pfet_01v8 ad=0.29 pd=2.58 as=0.29 ps=2.58 w=1 l=0.5
X130 vdd.t233 a_52792_24076# a_52406_24076# vdd.t232 sky130_fd_pr__pfet_01v8 ad=0.29 pd=2.58 as=0.29 ps=2.58 w=1 l=0.5
X131 X1.X1.X1.X2.X1.X2.X3.vin2 a_2196_11822# X1.X1.X1.X2.X2.vrefh vss.t158 sky130_fd_pr__nfet_01v8 ad=0.122 pd=1.42 as=0.122 ps=1.42 w=0.42 l=0.5
X132 a_19422_12822# a_19036_12822# vss.t774 vss.t773 sky130_fd_pr__nfet_01v8 ad=0.122 pd=1.42 as=0.122 ps=1.42 w=0.42 l=0.5
X133 a_49002_10916# a_48616_10916# vss.t1449 vss.t1448 sky130_fd_pr__nfet_01v8 ad=0.122 pd=1.42 as=0.122 ps=1.42 w=0.42 l=0.5
X134 vss.t654 d2.t0 a_8572_6962# vss.t653 sky130_fd_pr__nfet_01v8 ad=0.122 pd=1.42 as=0.122 ps=1.42 w=0.42 l=0.5
X135 vss.t1379 d0.t13 a_54992_4110# vss.t1378 sky130_fd_pr__nfet_01v8 ad=0.122 pd=1.42 as=0.122 ps=1.42 w=0.42 l=0.5
X136 vdd.t448 a_37852_6962# a_37466_6962# vdd.t447 sky130_fd_pr__pfet_01v8 ad=0.29 pd=2.58 as=0.29 ps=2.58 w=1 l=0.5
X137 a_2582_6104# a_2196_6104# vss.t1523 vss.t1522 sky130_fd_pr__nfet_01v8 ad=0.122 pd=1.42 as=0.122 ps=1.42 w=0.42 l=0.5
X138 vss.t877 d1.t6 a_8872_31700# vss.t876 sky130_fd_pr__nfet_01v8 ad=0.122 pd=1.42 as=0.122 ps=1.42 w=0.42 l=0.5
X139 vss.t656 d2.t1 a_52492_6962# vss.t655 sky130_fd_pr__nfet_01v8 ad=0.122 pd=1.42 as=0.122 ps=1.42 w=0.42 l=0.5
X140 a_2196_11822# d0.t14 vdd.t1353 vdd.t1352 sky130_fd_pr__pfet_01v8 ad=0.29 pd=2.58 as=0.29 ps=2.58 w=1 l=0.5
X141 X1.X1.X1.X1.X2.X1.X3.vin1 a_2196_25164# X1.X1.X1.X1.X2.X1.X1.vin1 vdd.t62 sky130_fd_pr__pfet_01v8 ad=0.29 pd=2.58 as=0.29 ps=2.58 w=1 l=0.5
X142 X1.X2.X2.X2.vrefh a_25712_17452# X1.X2.X2.X1.X2.X2.X3.vin2 vss.t987 sky130_fd_pr__nfet_01v8 ad=0.122 pd=1.42 as=0.122 ps=1.42 w=0.42 l=0.5
X143 X2.X1.X2.X2.X1.X2.X2.vin1 X2.X1.X2.X2.X1.X2.X1.vin2 vss.t90 sky130_fd_pr__res_high_po_0p35 l=1.09
X144 X2.X2.X1.X2.X2.X1.X3.vin1 a_46116_9916# X2.X2.X1.X2.X2.X1.X1.vin2 vss.t135 sky130_fd_pr__nfet_01v8 ad=0.122 pd=1.42 as=0.122 ps=1.42 w=0.42 l=0.5
X145 X1.X2.X1.X2.X2.vrefh X1.X2.X1.X2.X2.X1.X1.vin1 vss.t25 sky130_fd_pr__res_high_po_0p35 l=1.09
X146 X1.X1.X2.X2.X2.X1.X2.vin1 X1.X1.X2.X2.X2.X1.X1.vin2 vss.t83 sky130_fd_pr__res_high_po_0p35 l=1.09
X147 a_19722_7064# a_19336_7064# vss.t1060 vss.t1059 sky130_fd_pr__nfet_01v8 ad=0.122 pd=1.42 as=0.122 ps=1.42 w=0.42 l=0.5
X148 X1.X1.X2.X2.X1.X2.vout a_8572_22210# X1.X1.X2.X2.X3.vin1 vss.t1457 sky130_fd_pr__nfet_01v8 ad=0.122 pd=1.42 as=0.122 ps=1.42 w=0.42 l=0.5
X149 X1.X2.X1.X2.X1.X1.X3.vin1 a_16836_17540# X1.X2.X1.X2.X1.X1.X1.vin2 vss.t225 sky130_fd_pr__nfet_01v8 ad=0.122 pd=1.42 as=0.122 ps=1.42 w=0.42 l=0.5
X150 X2.X2.X2.X2.X2.X2.vout a_52492_29834# X2.X2.X2.X2.X3.vin2 vss.t128 sky130_fd_pr__nfet_01v8 ad=0.122 pd=1.42 as=0.122 ps=1.42 w=0.42 l=0.5
X151 a_2196_6104# d0.t15 vdd.t1355 vdd.t1354 sky130_fd_pr__pfet_01v8 ad=0.29 pd=2.58 as=0.29 ps=2.58 w=1 l=0.5
X152 X1.X2.X1.X2.X2.vrefh X1.X2.X1.X2.X1.X2.X2.vin1 vss.t25 sky130_fd_pr__res_high_po_0p35 l=1.09
X153 X2.X1.X2.X1.X2.X2.X3.vin2 a_39966_17452# X2.X1.X2.X2.vrefh vdd.t308 sky130_fd_pr__pfet_01v8 ad=0.29 pd=2.58 as=0.29 ps=2.58 w=1 l=0.5
X154 a_49002_22312# a_48616_22312# vdd.t135 vdd.t134 sky130_fd_pr__pfet_01v8 ad=0.29 pd=2.58 as=0.29 ps=2.58 w=1 l=0.5
X155 X1.X1.X1.X2.X2.X1.X3.vin2 a_4782_9010# X1.X1.X1.X2.X2.X1.vout vdd.t742 sky130_fd_pr__pfet_01v8 ad=0.29 pd=2.58 as=0.29 ps=2.58 w=1 l=0.5
X156 X1.X1.X2.X1.X1.X2.X3.vin1 a_10686_7922# X1.X1.X2.X1.X1.X2.X1.vin2 vdd.t336 sky130_fd_pr__pfet_01v8 ad=0.29 pd=2.58 as=0.29 ps=2.58 w=1 l=0.5
X157 vdd.t732 a_54992_26982# a_54606_26982# vdd.t731 sky130_fd_pr__pfet_01v8 ad=0.29 pd=2.58 as=0.29 ps=2.58 w=1 l=0.5
X158 a_31476_21352# d0.t16 vss.t1381 vss.t1380 sky130_fd_pr__nfet_01v8 ad=0.122 pd=1.42 as=0.122 ps=1.42 w=0.42 l=0.5
X159 X1.X2.X2.X2.X2.X1.X3.vin2 a_25326_28888# X1.X2.X2.X2.X2.X1.X2.vin1 vss.t899 sky130_fd_pr__nfet_01v8 ad=0.122 pd=1.42 as=0.122 ps=1.42 w=0.42 l=0.5
X160 vdd.t1357 d0.t17 a_54992_15546# vdd.t1356 sky130_fd_pr__pfet_01v8 ad=0.29 pd=2.58 as=0.29 ps=2.58 w=1 l=0.5
X161 vss.t1144 a_54992_25076# a_54606_25076# vss.t1143 sky130_fd_pr__nfet_01v8 ad=0.122 pd=1.42 as=0.122 ps=1.42 w=0.42 l=0.5
X162 a_46116_13728# d0.t18 vdd.t1359 vdd.t1358 sky130_fd_pr__pfet_01v8 ad=0.29 pd=2.58 as=0.29 ps=2.58 w=1 l=0.5
X163 vdd.t1361 d0.t19 a_25712_19358# vdd.t1360 sky130_fd_pr__pfet_01v8 ad=0.29 pd=2.58 as=0.29 ps=2.58 w=1 l=0.5
X164 vdd.t457 d0.t20 a_40352_28888# vdd.t456 sky130_fd_pr__pfet_01v8 ad=0.29 pd=2.58 as=0.29 ps=2.58 w=1 l=0.5
X165 vss.t141 a_23212_22210# a_22826_22210# vss.t140 sky130_fd_pr__nfet_01v8 ad=0.122 pd=1.42 as=0.122 ps=1.42 w=0.42 l=0.5
X166 X2.X1.X2.X1.X3.vin2 a_37852_10734# X2.X1.X2.X3.vin1 vss.t1269 sky130_fd_pr__nfet_01v8 ad=0.122 pd=1.42 as=0.122 ps=1.42 w=0.42 l=0.5
X167 a_19336_7064# d2.t2 vdd.t628 vdd.t627 sky130_fd_pr__pfet_01v8 ad=0.29 pd=2.58 as=0.29 ps=2.58 w=1 l=0.5
X168 X1.X2.X1.X1.X2.X2.X3.vin2 a_19422_20446# X1.X2.X1.X1.X2.X2.vout vdd.t1062 sky130_fd_pr__pfet_01v8 ad=0.29 pd=2.58 as=0.29 ps=2.58 w=1 l=0.5
X169 X1.X2.X2.X2.X1.X2.X2.vin1 a_25712_25076# X1.X2.X2.X2.X1.X2.X3.vin2 vdd.t1450 sky130_fd_pr__pfet_01v8 ad=0.29 pd=2.58 as=0.29 ps=2.58 w=1 l=0.5
X170 a_2196_17540# d0.t21 vss.t467 vss.t466 sky130_fd_pr__nfet_01v8 ad=0.122 pd=1.42 as=0.122 ps=1.42 w=0.42 l=0.5
X171 X2.X1.X2.X1.X1.X2.X3.vin1 a_39966_7922# X2.X1.X2.X1.X1.X2.X1.vin2 vdd.t951 sky130_fd_pr__pfet_01v8 ad=0.29 pd=2.58 as=0.29 ps=2.58 w=1 l=0.5
X172 X1.X2.X1.X3.vin1 a_19336_26164# X1.X2.X1.X1.X3.vin2 vss.t100 sky130_fd_pr__nfet_01v8 ad=0.122 pd=1.42 as=0.122 ps=1.42 w=0.42 l=0.5
X173 a_31862_23258# a_31476_23258# vdd.t678 vdd.t677 sky130_fd_pr__pfet_01v8 ad=0.29 pd=2.58 as=0.29 ps=2.58 w=1 l=0.5
X174 X2.X2.X1.X1.X1.X2.X3.vin1 a_48702_28070# X2.X2.X1.X1.X1.X2.vout vss.t745 sky130_fd_pr__nfet_01v8 ad=0.122 pd=1.42 as=0.122 ps=1.42 w=0.42 l=0.5
X175 X2.X2.X2.X1.X1.X2.X1.vin2 a_54992_7922# X2.X2.X2.X1.X1.X2.X3.vin1 vss.t422 sky130_fd_pr__nfet_01v8 ad=0.122 pd=1.42 as=0.122 ps=1.42 w=0.42 l=0.5
X176 X2.X2.X2.X2.X1.X1.vout a_52492_22210# X2.X2.X2.X2.X3.vin1 vdd.t843 sky130_fd_pr__pfet_01v8 ad=0.29 pd=2.58 as=0.29 ps=2.58 w=1 l=0.5
X177 X1.X1.X3.vin2.t3 a_8186_18358# X1.X1.X2.X3.vin1 vss.t1067 sky130_fd_pr__nfet_01v8 ad=0.122 pd=1.42 as=0.122 ps=1.42 w=0.42 l=0.5
X178 X2.X2.X1.X1.X1.X2.vrefh a_46502_30882# X2.X2.X1.X1.X1.X1.X3.vin2 vdd.t916 sky130_fd_pr__pfet_01v8 ad=0.29 pd=2.58 as=0.29 ps=2.58 w=1 l=0.5
X179 X1.X2.X1.X1.X2.X2.X2.vin1 a_17222_19446# X1.X2.X1.X1.X2.X2.X3.vin2 vss.t1134 sky130_fd_pr__nfet_01v8 ad=0.122 pd=1.42 as=0.122 ps=1.42 w=0.42 l=0.5
X180 X1.X1.X2.X2.X2.X2.X3.vin1 a_10686_30794# X1.X1.X2.X2.X2.X2.X1.vin2 vdd.t1182 sky130_fd_pr__pfet_01v8 ad=0.29 pd=2.58 as=0.29 ps=2.58 w=1 l=0.5
X181 X2.X1.X1.X1.X1.X2.X1.vin1 a_31862_28976# X2.X1.X1.X1.X1.X2.X3.vin1 vss.t491 sky130_fd_pr__nfet_01v8 ad=0.122 pd=1.42 as=0.122 ps=1.42 w=0.42 l=0.5
X182 X2.X1.X2.X2.X3.vin2 a_37466_29834# X2.X1.X2.X2.X2.X1.vout vss.t688 sky130_fd_pr__nfet_01v8 ad=0.122 pd=1.42 as=0.122 ps=1.42 w=0.42 l=0.5
X183 X2.X2.X2.X2.X2.X1.X1.vin2 a_54992_26982# X2.X2.X2.X2.X2.X1.X3.vin1 vss.t760 sky130_fd_pr__nfet_01v8 ad=0.122 pd=1.42 as=0.122 ps=1.42 w=0.42 l=0.5
X184 X2.X1.X2.X2.X1.X1.X1.vin2 a_40352_19358# X2.X1.X2.X2.X1.X1.X3.vin1 vss.t433 sky130_fd_pr__nfet_01v8 ad=0.122 pd=1.42 as=0.122 ps=1.42 w=0.42 l=0.5
X185 X1.X1.X1.X1.X3.vin1 a_4696_29936# X1.X1.X1.X1.X1.X2.vout vss.t681 sky130_fd_pr__nfet_01v8 ad=0.122 pd=1.42 as=0.122 ps=1.42 w=0.42 l=0.5
X186 vdd.t669 a_38152_8828# a_37766_8828# vdd.t668 sky130_fd_pr__pfet_01v8 ad=0.29 pd=2.58 as=0.29 ps=2.58 w=1 l=0.5
X187 X1.X1.X2.X2.X1.X2.X1.vin2 a_11072_23170# X1.X1.X2.X2.X1.X2.X3.vin1 vss.t766 sky130_fd_pr__nfet_01v8 ad=0.122 pd=1.42 as=0.122 ps=1.42 w=0.42 l=0.5
X188 a_33676_24258# d1.t7 vss.t879 vss.t878 sky130_fd_pr__nfet_01v8 ad=0.122 pd=1.42 as=0.122 ps=1.42 w=0.42 l=0.5
X189 X1.X2.X1.X2.X2.X2.X1.vin2 a_17222_6104# X1.X2.X1.X2.X2.X2.X3.vin1 vdd.t728 sky130_fd_pr__pfet_01v8 ad=0.29 pd=2.58 as=0.29 ps=2.58 w=1 l=0.5
X190 X1.X1.X1.X2.X2.X1.X3.vin2 a_2196_8010# X1.X1.X1.X2.X2.X1.X2.vin1 vdd.t1162 sky130_fd_pr__pfet_01v8 ad=0.29 pd=2.58 as=0.29 ps=2.58 w=1 l=0.5
X191 a_34062_12822# a_33676_12822# vss.t1421 vss.t1420 sky130_fd_pr__nfet_01v8 ad=0.122 pd=1.42 as=0.122 ps=1.42 w=0.42 l=0.5
X192 X2.X1.X1.X2.X1.X2.X1.vin2 X2.X1.X1.X2.X1.X2.X2.vin1 vss.t77 sky130_fd_pr__res_high_po_0p35 l=1.09
X193 vdd.t851 d1.t8 a_8872_16452# vdd.t850 sky130_fd_pr__pfet_01v8 ad=0.29 pd=2.58 as=0.29 ps=2.58 w=1 l=0.5
X194 a_48316_16634# d1.t9 vdd.t853 vdd.t852 sky130_fd_pr__pfet_01v8 ad=0.29 pd=2.58 as=0.29 ps=2.58 w=1 l=0.5
X195 vdd.t855 d1.t10 a_23512_27888# vdd.t854 sky130_fd_pr__pfet_01v8 ad=0.29 pd=2.58 as=0.29 ps=2.58 w=1 l=0.5
X196 X2.X2.X1.X1.X2.X2.X3.vin1 a_48702_20446# X2.X2.X1.X1.X2.X2.vout vss.t1249 sky130_fd_pr__nfet_01v8 ad=0.122 pd=1.42 as=0.122 ps=1.42 w=0.42 l=0.5
X197 X1.X2.X2.X2.X1.X2.vout a_23212_22210# X1.X2.X2.X2.X3.vin1 vss.t139 sky130_fd_pr__nfet_01v8 ad=0.122 pd=1.42 as=0.122 ps=1.42 w=0.42 l=0.5
X198 a_13696_892# d6.t0 vdd.t985 vdd.t984 sky130_fd_pr__pfet_01v8 ad=0.29 pd=2.58 as=0.29 ps=2.58 w=1 l=0.5
X199 X1.X2.X1.X2.X2.X2.vout a_19036_5198# X1.X2.X1.X2.X2.X2.X3.vin2 vss.t691 sky130_fd_pr__nfet_01v8 ad=0.122 pd=1.42 as=0.122 ps=1.42 w=0.42 l=0.5
X200 X2.X2.X2.X1.X2.X1.vout a_52492_14586# X2.X2.X2.X1.X3.vin2 vdd.t370 sky130_fd_pr__pfet_01v8 ad=0.29 pd=2.58 as=0.29 ps=2.58 w=1 l=0.5
X201 a_16836_23258# d0.t22 vdd.t459 vdd.t458 sky130_fd_pr__pfet_01v8 ad=0.29 pd=2.58 as=0.29 ps=2.58 w=1 l=0.5
X202 X2.X1.X2.X2.X3.vin1 a_37466_22210# X2.X1.X2.X2.X1.X2.vout vdd.t607 sky130_fd_pr__pfet_01v8 ad=0.29 pd=2.58 as=0.29 ps=2.58 w=1 l=0.5
X203 a_4396_5198# d1.t11 vdd.t937 vdd.t936 sky130_fd_pr__pfet_01v8 ad=0.29 pd=2.58 as=0.29 ps=2.58 w=1 l=0.5
X204 X1.X1.X1.X2.X1.X2.vout a_4396_12822# X1.X1.X1.X2.X1.X2.X3.vin1 vdd.t610 sky130_fd_pr__pfet_01v8 ad=0.29 pd=2.58 as=0.29 ps=2.58 w=1 l=0.5
X205 vss.t103 a_54992_9828# a_54606_9828# vss.t102 sky130_fd_pr__nfet_01v8 ad=0.122 pd=1.42 as=0.122 ps=1.42 w=0.42 l=0.5
X206 X1.X1.X2.X2.X3.vin2 a_8572_25982# X1.X1.X2.X3.vin2 vss.t152 sky130_fd_pr__nfet_01v8 ad=0.122 pd=1.42 as=0.122 ps=1.42 w=0.42 l=0.5
X207 a_46116_11822# d0.t23 vss.t469 vss.t468 sky130_fd_pr__nfet_01v8 ad=0.122 pd=1.42 as=0.122 ps=1.42 w=0.42 l=0.5
X208 X3.vin1.t3 a_28482_892# vout.t3 vss.t1271 sky130_fd_pr__nfet_01v8 ad=0.122 pd=1.42 as=0.122 ps=1.42 w=0.42 l=0.5
X209 vss.t86 a_25712_13640# a_25326_13640# vss.t85 sky130_fd_pr__nfet_01v8 ad=0.122 pd=1.42 as=0.122 ps=1.42 w=0.42 l=0.5
X210 X2.X2.X1.X2.vrefh X2.X2.X1.X1.X2.X2.X2.vin1 vss.t76 sky130_fd_pr__res_high_po_0p35 l=1.09
X211 X1.X2.X1.X1.X1.X2.X3.vin1 a_16836_28976# X1.X2.X1.X1.X1.X2.X1.vin2 vss.t312 sky130_fd_pr__nfet_01v8 ad=0.122 pd=1.42 as=0.122 ps=1.42 w=0.42 l=0.5
X212 vdd.t1146 a_11072_13640# a_10686_13640# vdd.t1145 sky130_fd_pr__pfet_01v8 ad=0.29 pd=2.58 as=0.29 ps=2.58 w=1 l=0.5
X213 X1.X2.X1.X1.X2.X2.vrefh X1.X2.X1.X1.X2.X1.X2.vin1 vss.t25 sky130_fd_pr__res_high_po_0p35 l=1.09
X214 X2.X1.X2.X2.X2.X1.X3.vin1 a_39966_26982# X2.X1.X2.X2.X2.X1.X1.vin1 vss.t495 sky130_fd_pr__nfet_01v8 ad=0.122 pd=1.42 as=0.122 ps=1.42 w=0.42 l=0.5
X215 X1.X2.X2.X2.X1.X1.X3.vin1 a_25326_19358# X1.X2.X2.X2.X1.X1.X1.vin1 vss.t550 sky130_fd_pr__nfet_01v8 ad=0.122 pd=1.42 as=0.122 ps=1.42 w=0.42 l=0.5
X216 a_31476_32788# d0.t24 vss.t471 vss.t470 sky130_fd_pr__nfet_01v8 ad=0.122 pd=1.42 as=0.122 ps=1.42 w=0.42 l=0.5
X217 X2.X1.X2.X2.X1.X2.X3.vin2 a_38152_24076# X2.X1.X2.X2.X1.X2.vout vss.t331 sky130_fd_pr__nfet_01v8 ad=0.122 pd=1.42 as=0.122 ps=1.42 w=0.42 l=0.5
X218 a_5082_7064# a_4696_7064# vss.t1274 vss.t1273 sky130_fd_pr__nfet_01v8 ad=0.122 pd=1.42 as=0.122 ps=1.42 w=0.42 l=0.5
X219 a_19036_12822# d1.t12 vss.t947 vss.t946 sky130_fd_pr__nfet_01v8 ad=0.122 pd=1.42 as=0.122 ps=1.42 w=0.42 l=0.5
X220 X2.X1.X2.X1.X1.X2.vout a_37852_6962# X2.X1.X2.X1.X3.vin1 vss.t458 sky130_fd_pr__nfet_01v8 ad=0.122 pd=1.42 as=0.122 ps=1.42 w=0.42 l=0.5
X221 X2.X2.X2.X1.X2.X2.vout a_52406_16452# X2.X2.X2.X1.X2.X2.X3.vin1 vss.t403 sky130_fd_pr__nfet_01v8 ad=0.122 pd=1.42 as=0.122 ps=1.42 w=0.42 l=0.5
X222 a_31476_17540# d0.t25 vdd.t461 vdd.t460 sky130_fd_pr__pfet_01v8 ad=0.29 pd=2.58 as=0.29 ps=2.58 w=1 l=0.5
X223 X1.X1.X1.X1.X2.X1.X2.vin1 a_2582_23258# X1.X1.X1.X1.X2.X1.X3.vin2 vss.t1168 sky130_fd_pr__nfet_01v8 ad=0.122 pd=1.42 as=0.122 ps=1.42 w=0.42 l=0.5
X224 a_46116_25164# d0.t26 vdd.t463 vdd.t462 sky130_fd_pr__pfet_01v8 ad=0.29 pd=2.58 as=0.29 ps=2.58 w=1 l=0.5
X225 vss.t1411 a_23212_25982# a_22826_25982# vss.t1410 sky130_fd_pr__nfet_01v8 ad=0.122 pd=1.42 as=0.122 ps=1.42 w=0.42 l=0.5
X226 vss.t473 d0.t27 a_25712_28888# vss.t472 sky130_fd_pr__nfet_01v8 ad=0.122 pd=1.42 as=0.122 ps=1.42 w=0.42 l=0.5
X227 X1.X2.X2.X2.X1.X2.X1.vin1 X1.X2.X2.X2.X1.X2.X1.vin2 vss.t27 sky130_fd_pr__res_high_po_0p35 l=1.09
X228 X2.X2.X1.X2.X1.X2.X1.vin2 a_46502_13728# X2.X2.X1.X2.X1.X2.X3.vin1 vdd.t1202 sky130_fd_pr__pfet_01v8 ad=0.29 pd=2.58 as=0.29 ps=2.58 w=1 l=0.5
X229 X1.X1.X1.X1.X1.X2.vout a_5082_29936# X1.X1.X1.X1.X3.vin1 vdd.t260 sky130_fd_pr__pfet_01v8 ad=0.29 pd=2.58 as=0.29 ps=2.58 w=1 l=0.5
X230 a_2196_28976# d0.t28 vss.t475 vss.t474 sky130_fd_pr__nfet_01v8 ad=0.122 pd=1.42 as=0.122 ps=1.42 w=0.42 l=0.5
X231 a_31476_8010# d0.t29 vss.t477 vss.t476 sky130_fd_pr__nfet_01v8 ad=0.122 pd=1.42 as=0.122 ps=1.42 w=0.42 l=0.5
X232 X1.X2.X1.X1.X3.vin1 a_19336_29936# X1.X2.X1.X1.X1.X2.vout vss.t794 sky130_fd_pr__nfet_01v8 ad=0.122 pd=1.42 as=0.122 ps=1.42 w=0.42 l=0.5