* SPICE3 file created from 8bit_dac.ext - technology: sky130B

.subckt sky130_fd_pr__res_high_po_0p35_2NY7PZ a_n35_109# a_n165_n671# a_n35_n541#
X0 a_n35_n541# a_n35_109# a_n165_n671# sky130_fd_pr__res_high_po_0p35 l=1.09
C0 a_n35_109# a_n35_n541# 0.0153f
C1 a_n35_n541# a_n165_n671# 0.583f
C2 a_n35_109# a_n165_n671# 0.583f
.ends

.subckt sky130_fd_pr__pfet_01v8_XPYSY6 w_n246_n319# a_n50_n197# a_50_n100# a_n108_n100#
+ VSUBS
X0 a_50_n100# a_n50_n197# a_n108_n100# w_n246_n319# sky130_fd_pr__pfet_01v8 ad=0.29 pd=2.58 as=0.29 ps=2.58 w=1 l=0.5
C0 w_n246_n319# a_50_n100# 0.0852f
C1 w_n246_n319# a_n108_n100# 0.0852f
C2 a_n50_n197# w_n246_n319# 0.119f
C3 a_n108_n100# a_50_n100# 0.0906f
C4 a_n50_n197# a_50_n100# 0.0163f
C5 a_n50_n197# a_n108_n100# 0.0163f
C6 a_50_n100# VSUBS 0.0558f
C7 a_n108_n100# VSUBS 0.0558f
C8 a_n50_n197# VSUBS 0.179f
C9 w_n246_n319# VSUBS 1.41f
.ends

.subckt sky130_fd_pr__nfet_01v8_ZFH27D a_50_n42# a_n210_n216# a_n108_n42# a_n50_n130#
X0 a_50_n42# a_n50_n130# a_n108_n42# a_n210_n216# sky130_fd_pr__nfet_01v8 ad=0.122 pd=1.42 as=0.122 ps=1.42 w=0.42 l=0.5
C0 a_n50_n130# a_50_n42# 0.00909f
C1 a_n108_n42# a_50_n42# 0.0391f
C2 a_n50_n130# a_n108_n42# 0.00909f
C3 a_50_n42# a_n210_n216# 0.0801f
C4 a_n108_n42# a_n210_n216# 0.0801f
C5 a_n50_n130# a_n210_n216# 0.439f
.ends

.subckt sw vin1 vin2 vout vdd din m1_688_n494# vss m1_994_178#
XXM1 vdd din m1_994_178# vdd vss sky130_fd_pr__pfet_01v8_XPYSY6
XXM2 vdd m1_994_178# m1_688_n494# vdd vss sky130_fd_pr__pfet_01v8_XPYSY6
XXM3 vdd m1_994_178# vout vin1 vss sky130_fd_pr__pfet_01v8_XPYSY6
XXM4 vdd m1_688_n494# vin2 vout vss sky130_fd_pr__pfet_01v8_XPYSY6
XXM5 m1_994_178# vss vss din sky130_fd_pr__nfet_01v8_ZFH27D
XXM6 m1_688_n494# vss vss m1_994_178# sky130_fd_pr__nfet_01v8_ZFH27D
XXM7 vout vss vin2 m1_994_178# sky130_fd_pr__nfet_01v8_ZFH27D
XXM8 vin1 vss vout m1_688_n494# sky130_fd_pr__nfet_01v8_ZFH27D
C0 m1_688_n494# vin1 0.382f
C1 m1_994_178# din 0.477f
C2 vin2 m1_994_178# 0.0836f
C3 vout vin1 -0.0258f
C4 vdd m1_994_178# 0.619f
C5 vin2 din 4.93e-19
C6 vdd din 0.31f
C7 vdd vin2 0.147f
C8 m1_994_178# m1_688_n494# 0.393f
C9 m1_994_178# vout 0.323f
C10 m1_688_n494# din 0.00777f
C11 m1_994_178# vin1 0.154f
C12 vin2 m1_688_n494# 0.247f
C13 vdd m1_688_n494# 0.182f
C14 vin2 vout -0.0571f
C15 vdd vout 0.192f
C16 vin1 din 5.3e-19
C17 vin2 vin1 0.514f
C18 vdd vin1 0.259f
C19 m1_688_n494# vout 0.374f
C20 din vss 0.855f
C21 vin1 vss 0.327f
C22 vout vss 0.355f
C23 m1_688_n494# vss 1.01f
C24 m1_994_178# vss 1.62f
C25 vin2 vss 0.759f
C26 vdd vss 4.95f
.ends

.subckt x2bit_dac X1/vin2 X3/vin2 vout vrefl X2/m1_994_178# d0 X2/m1_688_n494# X3/m1_688_n494#
+ X1/m1_688_n494# X1/m1_994_178# vdd vrefh X1/vin1 X2/vin1 d1 vss X3/vin1 X3/m1_994_178#
XXR1 vrefh vss X1/vin1 sky130_fd_pr__res_high_po_0p35_2NY7PZ
XXR2 X1/vin2 vss X1/vin1 sky130_fd_pr__res_high_po_0p35_2NY7PZ
XXR3 X1/vin2 vss X2/vin1 sky130_fd_pr__res_high_po_0p35_2NY7PZ
XXR4 vrefl vss X2/vin1 sky130_fd_pr__res_high_po_0p35_2NY7PZ
XX1 X1/vin1 X1/vin2 X3/vin1 vdd d0 X1/m1_688_n494# vss X1/m1_994_178# sw
XX2 X2/vin1 vrefl X3/vin2 vdd d0 X2/m1_688_n494# vss X2/m1_994_178# sw
XX3 X3/vin1 X3/vin2 vout vdd d1 X3/m1_688_n494# vss X3/m1_994_178# sw
C0 X2/vin1 d1 7.58e-19
C1 X1/vin2 X3/m1_688_n494# 0.00743f
C2 X2/m1_688_n494# X2/vin1 0.0109f
C3 vrefh d0 1.28e-19
C4 X1/m1_688_n494# X3/vin1 0.121f
C5 vrefh X1/vin1 0.0879f
C6 X1/vin2 vrefl 0.0763f
C7 X1/vin2 vdd 0.167f
C8 X2/m1_688_n494# X3/m1_688_n494# 4.77e-21
C9 X3/vin2 X2/vin1 0.133f
C10 X1/m1_688_n494# d0 0.0316f
C11 X1/m1_994_178# X2/vin1 1.78e-19
C12 X1/m1_688_n494# X3/m1_994_178# 1.06e-19
C13 X1/m1_688_n494# X1/vin1 0.0288f
C14 vrefl d1 7.29e-21
C15 vout d1 -2.03e-24
C16 vdd d1 0.0712f
C17 vrefl X2/m1_688_n494# 0.0375f
C18 X3/vin2 X3/m1_688_n494# 0.0138f
C19 vdd X2/m1_688_n494# 0.0636f
C20 X3/vin1 d0 4.36e-19
C21 X3/vin1 X3/m1_994_178# 0.0297f
C22 X1/vin2 vrefh 0.0964f
C23 X3/vin1 X1/vin1 0.102f
C24 X2/m1_994_178# d0 0.0126f
C25 vrefl X3/vin2 0.111f
C26 X2/vin1 X3/m1_688_n494# 0.00351f
C27 vdd X3/vin2 0.118f
C28 X1/vin1 d0 0.0483f
C29 X1/vin2 X1/m1_688_n494# 0.0102f
C30 vdd X1/m1_994_178# 6.99e-19
C31 vrefl X2/vin1 0.067f
C32 vdd X2/vin1 0.234f
C33 X1/m1_688_n494# d1 2.7e-19
C34 X1/vin2 X3/vin1 0.157f
C35 X1/m1_688_n494# X2/m1_688_n494# 0.00198f
C36 X1/vin2 d0 0.177f
C37 X1/vin2 X3/m1_994_178# 0.00113f
C38 X1/vin2 X2/m1_994_178# 1.78e-19
C39 vdd X3/m1_688_n494# -0.00126f
C40 X3/vin1 d1 0.0273f
C41 X1/vin2 X1/vin1 0.167f
C42 X1/m1_688_n494# X3/vin2 7.84e-19
C43 X3/vin1 X2/m1_688_n494# 0.00207f
C44 X1/m1_994_178# X1/m1_688_n494# -5.68e-32
C45 X2/m1_688_n494# d0 0.0412f
C46 X2/m1_994_178# d1 2.92e-22
C47 X3/m1_994_178# X2/m1_688_n494# 1.15e-20
C48 vdd vrefl 0.186f
C49 X1/vin1 d1 1.51e-19
C50 X1/m1_688_n494# X2/vin1 8.88e-20
C51 X3/vin1 X3/vin2 0.0734f
C52 X1/m1_994_178# X3/vin1 0.00578f
C53 X3/vin2 d0 4.34e-19
C54 X3/m1_994_178# X3/vin2 0.0079f
C55 X1/m1_994_178# d0 0.00943f
C56 X2/m1_994_178# X3/vin2 0.00558f
C57 X1/m1_994_178# X2/m1_994_178# 0.00396f
C58 X1/m1_688_n494# X3/m1_688_n494# 4.2e-20
C59 X1/vin1 X3/vin2 2.23e-19
C60 X3/vin1 X2/vin1 0.00117f
C61 vdd vrefh 9.92e-19
C62 X1/m1_994_178# X1/vin1 0.025f
C63 X1/vin2 d1 0.00147f
C64 X2/vin1 d0 0.199f
C65 X1/vin2 X2/m1_688_n494# 8.88e-20
C66 X3/m1_994_178# X2/vin1 5.34e-19
C67 X2/m1_994_178# X2/vin1 0.0261f
C68 X3/vin1 X3/m1_688_n494# 0.0365f
C69 X1/vin1 X2/vin1 0.0689f
C70 vdd X1/m1_688_n494# 0.0775f
C71 X2/m1_688_n494# d1 0.00148f
C72 X3/m1_994_178# X3/m1_688_n494# 2.84e-32
C73 X1/vin2 X3/vin2 8.93e-19
C74 X1/vin2 X1/m1_994_178# 0.0269f
C75 X3/vin1 vrefl 0.00118f
C76 X3/vin1 vout 8.02e-19
C77 vdd X3/vin1 0.313f
C78 vrefl d0 0.0255f
C79 X3/vin2 d1 0.012f
C80 vdd d0 0.152f
C81 X1/vin2 X2/vin1 0.227f
C82 X2/m1_688_n494# X3/vin2 0.168f
C83 X1/m1_994_178# d1 2.25e-20
C84 vrefl X2/m1_994_178# 0.0258f
C85 vdd X2/m1_994_178# 6.68e-20
C86 vdd X1/vin1 0.252f
C87 d1 vss 0.545f
C88 vout vss 0.2f
C89 X3/m1_688_n494# vss 0.858f
C90 X3/m1_994_178# vss 1.15f
C91 vdd vss 15.8f
C92 d0 vss 1.67f
C93 X2/vin1 vss 1.77f
C94 X3/vin2 vss 1.43f
C95 X2/m1_688_n494# vss 0.858f
C96 X2/m1_994_178# vss 1.15f
C97 vrefl vss 3f
C98 X1/vin1 vss 2.28f
C99 X3/vin1 vss 0.845f
C100 X1/m1_688_n494# vss 0.853f
C101 X1/m1_994_178# vss 1.15f
C102 X1/vin2 vss 2.16f
C103 vrefh vss 1.34f
.ends

.subckt x3bit_dac d1 d2 X2/X1/m1_994_178# X1/X2/m1_688_n494# X2/X1/vin1 X2/X1/m1_688_n494#
+ X2/X2/vin1 X1/X3/vin2 X1/X3/vin1 X1/vout X2/X2/m1_994_178# sw_0/m1_994_178# X1/X1/m1_994_178#
+ sw_0/m1_688_n494# X1/X2/vin1 vdd X2/X3/vin2 X2/X3/vin1 X2/X2/m1_688_n494# X1/X3/m1_994_178#
+ X1/X1/m1_688_n494# X1/X3/m1_688_n494# vrefl X2/X3/m1_688_n494# vout d0 X1/X1/vin1
+ X1/X1/vin2 vrefh X2/vrefh vss X2/vout X1/X2/m1_994_178# X2/X3/m1_994_178# X2/X1/vin2
XX1 X1/X1/vin2 X1/X3/vin2 X1/vout X2/vrefh X1/X2/m1_994_178# d0 X1/X2/m1_688_n494#
+ X1/X3/m1_688_n494# X1/X1/m1_688_n494# X1/X1/m1_994_178# vdd vrefh X1/X1/vin1 X1/X2/vin1
+ d1 vss X1/X3/vin1 X1/X3/m1_994_178# x2bit_dac
XX2 X2/X1/vin2 X2/X3/vin2 X2/vout vrefl X2/X2/m1_994_178# d0 X2/X2/m1_688_n494# X2/X3/m1_688_n494#
+ X2/X1/m1_688_n494# X2/X1/m1_994_178# vdd X2/vrefh X2/X1/vin1 X2/X2/vin1 d1 vss X2/X3/vin1
+ X2/X3/m1_994_178# x2bit_dac
Xsw_0 X1/vout X2/vout vout vdd d2 sw_0/m1_688_n494# vss sw_0/m1_994_178# sw
C0 X2/X3/m1_688_n494# d1 0.0412f
C1 X2/X3/m1_994_178# d2 3.33e-19
C2 X1/X3/m1_994_178# vdd 6.99e-19
C3 vdd X2/X3/vin2 -0.00176f
C4 X1/X3/vin2 X1/vout 0.27f
C5 X2/X1/vin2 X2/X3/vin1 -0.00988f
C6 X1/X2/vin1 d1 0.0136f
C7 X2/X1/m1_688_n494# vdd -0.00178f
C8 X1/vout X2/vout 3.21e-19
C9 X1/X3/vin2 d1 0.141f
C10 X1/X2/vin1 d0 0.0624f
C11 sw_0/m1_994_178# X1/X3/m1_688_n494# 3.14e-19
C12 X1/X2/m1_994_178# vdd 5.52e-19
C13 X1/X3/m1_994_178# X1/vout 0.0106f
C14 X2/X1/vin2 d2 7.2e-20
C15 X2/vout d1 0.033f
C16 sw_0/m1_994_178# vdd 7.35e-19
C17 X1/X3/vin1 vdd 0.0299f
C18 sw_0/m1_688_n494# X2/X3/vin1 0.00874f
C19 X1/X3/m1_994_178# d1 0.00943f
C20 X2/X3/vin2 d1 9.56e-19
C21 X1/X3/m1_688_n494# vout 1.52e-19
C22 X2/X1/vin2 X2/X1/vin1 -0.0277f
C23 X1/X2/m1_994_178# X2/X1/m1_994_178# 0.00396f
C24 X2/X3/vin1 vdd -0.0214f
C25 X2/X1/m1_688_n494# d1 7.06e-20
C26 sw_0/m1_994_178# X1/vout 7.31e-20
C27 X1/X3/vin1 X1/vout 0.00864f
C28 X2/vrefh X1/X2/vin1 -0.033f
C29 X2/X1/m1_688_n494# d0 0.028f
C30 X2/vrefh X1/X3/vin2 -0.0182f
C31 vdd d2 0.0019f
C32 sw_0/m1_994_178# d1 0.00705f
C33 X1/X3/vin1 d1 0.00177f
C34 X2/X1/vin2 X2/X3/m1_994_178# -0.00113f
C35 X2/X2/vin1 d0 2.3e-20
C36 X2/X1/vin1 vdd -0.00426f
C37 X2/X3/vin1 d1 0.12f
C38 vrefh d0 1.38e-20
C39 X2/vrefh X2/X1/m1_688_n494# 8.22e-20
C40 d1 d2 0.0105f
C41 sw_0/m1_688_n494# X2/X3/m1_994_178# 3.31e-19
C42 X2/X1/m1_994_178# X2/X1/vin1 -1.07e-19
C43 X2/X3/m1_994_178# vdd 5.31e-20
C44 X2/X1/vin1 d1 0.0116f
C45 X2/X1/vin1 d0 0.219f
C46 vrefl d0 1.55e-19
C47 X2/vrefh X2/X3/vin1 2.33e-19
C48 X2/X3/m1_688_n494# X2/vout 0.0187f
C49 X1/X3/vin2 X1/X2/vin1 -0.00316f
C50 X2/X1/vin2 vdd -0.0121f
C51 X2/vrefh d2 6.65e-20
C52 X2/X3/m1_994_178# d1 0.0126f
C53 X1/X2/vin1 X1/X3/m1_994_178# -5.34e-19
C54 X1/X3/m1_688_n494# sw_0/m1_688_n494# 4.19e-20
C55 X2/vrefh X2/X1/vin1 0.164f
C56 X1/X3/vin2 X1/X3/m1_994_178# -3.03e-19
C57 sw_0/m1_688_n494# vdd 4.24e-19
C58 sw_0/m1_994_178# X2/X3/m1_688_n494# 3.38e-19
C59 X1/X3/m1_688_n494# vdd 0.0893f
C60 X2/X3/vin2 X2/vout 0.00734f
C61 X1/X3/vin2 X2/X1/m1_688_n494# 8.07e-19
C62 X2/X1/vin2 d1 0.0971f
C63 X1/X2/m1_688_n494# X2/X1/m1_688_n494# 0.00198f
C64 X2/X1/vin2 d0 0.0754f
C65 X2/X3/vin1 X2/X3/m1_688_n494# -0.00752f
C66 X2/X3/m1_688_n494# vout 9.7e-20
C67 sw_0/m1_994_178# X1/X3/vin2 0.00546f
C68 X1/vout sw_0/m1_688_n494# 1.18e-19
C69 X1/X3/vin1 X1/X3/vin2 -0.00351f
C70 X1/X3/m1_688_n494# X1/vout 0.0222f
C71 sw_0/m1_994_178# X1/X2/m1_688_n494# 2.95e-20
C72 sw_0/m1_994_178# X2/vout 1.78e-19
C73 X1/vout vdd 0.0747f
C74 sw_0/m1_688_n494# d1 0.0467f
C75 X1/X1/vin2 d0 0.0233f
C76 X1/X3/m1_688_n494# d1 0.0316f
C77 X1/X3/vin2 X2/X3/vin1 1.22e-19
C78 sw_0/m1_994_178# X1/X3/m1_994_178# 6.1e-19
C79 vdd d1 0.48f
C80 X1/X2/vin1 d2 6e-20
C81 X2/X3/vin1 X2/vout 0.221f
C82 X2/vrefh X2/X1/vin2 0.00388f
C83 vdd d0 0.0538f
C84 X1/X3/vin2 d2 0.00417f
C85 sw_0/m1_994_178# X2/X1/m1_688_n494# 2.68e-20
C86 X2/X3/vin1 X2/X3/vin2 -2.38e-19
C87 X1/X2/m1_688_n494# d2 4.64e-19
C88 X1/vout d1 0.0238f
C89 X2/vrefh X1/X1/vin2 -2.85e-19
C90 X1/X3/vin2 X2/X1/vin1 5.19e-19
C91 X1/X3/m1_994_178# d2 3.09e-19
C92 X1/X2/m1_688_n494# X2/X1/vin1 8.22e-20
C93 X2/X1/m1_994_178# d0 0.0069f
C94 sw_0/m1_994_178# X2/X3/vin1 0.00329f
C95 X2/X1/m1_688_n494# d2 6.36e-19
C96 X2/vrefh vdd 0.0108f
C97 X2/X1/m1_688_n494# X2/X1/vin1 -0.00247f
C98 X2/X1/vin2 X2/X3/m1_688_n494# -0.00743f
C99 X1/X2/m1_994_178# X2/X1/vin1 1.64e-19
C100 X2/vrefh X2/X1/m1_994_178# 1.64e-19
C101 X2/X3/m1_994_178# X2/vout 0.011f
C102 X2/X3/vin1 d2 0.00216f
C103 X2/vrefh d1 0.0738f
C104 X2/X1/vin2 X1/X3/vin2 3.94e-19
C105 X2/vrefh d0 0.818f
C106 sw_0/m1_688_n494# X2/X3/m1_688_n494# 5.55e-20
C107 vdd X2/X3/m1_688_n494# -0.00442f
C108 sw_0/m1_994_178# X2/X3/m1_994_178# 6.71e-19
C109 X2/X1/vin1 d2 9.24e-20
C110 X1/X2/vin1 X1/X3/m1_688_n494# -0.00351f
C111 X1/X3/vin2 sw_0/m1_688_n494# 0.00815f
C112 X1/X3/vin2 X1/X3/m1_688_n494# -0.00934f
C113 X1/X2/vin1 vdd -5.68e-32
C114 X1/X3/vin2 vdd 0.228f
C115 sw_0/m1_688_n494# X2/vout 1.76e-19
C116 X2/X3/vin1 X2/X3/m1_994_178# 2.84e-32
C117 X1/X2/m1_688_n494# vdd 6.35e-19
C118 X1/X3/m1_994_178# sw_0/m1_688_n494# 2.86e-19
C119 sw_0/m1_688_n494# X2/X3/vin2 3.85e-19
C120 X1/X3/m1_994_178# X1/X3/m1_688_n494# -2.84e-32
C121 vdd X2/vout 0.105f
C122 d2 vss 0.62f
C123 vout vss 0.2f
C124 sw_0/m1_688_n494# vss 0.859f
C125 sw_0/m1_994_178# vss 1.15f
C126 d1 vss 1.95f
C127 X2/vout vss 0.945f
C128 X2/X3/m1_688_n494# vss 0.949f
C129 X2/X3/m1_994_178# vss 1.15f
C130 vdd vss 35.7f
C131 d0 vss 3.81f
C132 X2/X2/vin1 vss 1.46f
C133 X2/X3/vin2 vss 1.4f
C134 X2/X2/m1_688_n494# vss 0.858f
C135 X2/X2/m1_994_178# vss 1.15f
C136 vrefl vss 2.39f
C137 X2/X1/vin1 vss 1.92f
C138 X2/X3/vin1 vss 0.868f
C139 X2/X1/m1_688_n494# vss 0.858f
C140 X2/X1/m1_994_178# vss 1.15f
C141 X2/X1/vin2 vss 1.73f
C142 X1/vout vss 0.698f
C143 X1/X3/m1_688_n494# vss 0.856f
C144 X1/X3/m1_994_178# vss 1.15f
C145 X1/X2/vin1 vss 1.46f
C146 X1/X3/vin2 vss 1.2f
C147 X1/X2/m1_688_n494# vss 0.858f
C148 X1/X2/m1_994_178# vss 1.15f
C149 X2/vrefh vss 3.29f
C150 X1/X1/vin1 vss 1.91f
C151 X1/X3/vin1 vss 0.813f
C152 X1/X1/m1_688_n494# vss 0.858f
C153 X1/X1/m1_994_178# vss 1.15f
C154 X1/X1/vin2 vss 1.73f
C155 vrefh vss 1.11f
.ends

.subckt x4bit_dac vrefh d3 X2/X2/X1/m1_688_n494# X2/X1/X2/vin1 X2/X1/X1/vin2 X2/X2/vrefh
+ X1/X1/X3/vin1 X1/X1/X3/vin2 X2/X2/X1/vin2 X1/X1/vout vrefl X1/X1/X3/m1_994_178#
+ d1 X1/X2/X3/vin2 X3/vin2 X1/X1/X3/m1_688_n494# X1/X2/X3/vin1 X3/m1_994_178# vout
+ X1/sw_0/m1_994_178# X1/X2/X1/vin1 X2/X1/X3/vin1 X2/X2/X3/vin2 X1/X2/X2/vin1 X2/sw_0/m1_688_n494#
+ X2/X2/X3/vin1 X2/X2/X2/m1_994_178# X1/X1/X2/m1_994_178# X1/X2/X3/m1_994_178# X2/X2/vout
+ X3/vin1 X2/X2/X2/m1_688_n494# X2/X2/X1/m1_994_178# X2/sw_0/m1_994_178# X2/X1/X3/m1_688_n494#
+ X2/X2/X1/vin1 X2/X1/vout X1/X2/vout X1/X1/X1/vin1 X2/X2/X2/vin1 X1/X1/X1/vin2 X3/m1_688_n494#
+ vdd X2/X1/X3/vin2 X1/X1/X2/vin1 X1/sw_0/m1_688_n494# X1/X2/vrefh X2/X2/X3/m1_994_178#
+ d0 X2/X1/X3/m1_994_178# X2/X2/X3/m1_688_n494# X1/X2/X3/m1_688_n494# X1/X1/X1/m1_994_178#
+ d2 vss X2/vrefh X1/X1/X2/m1_688_n494# X1/X1/X1/m1_688_n494# X2/X1/X1/vin1 X1/X2/X1/vin2
XX1 d1 d2 X1/X2/X1/m1_994_178# X1/X1/X2/m1_688_n494# X1/X2/X1/vin1 X1/X2/X1/m1_688_n494#
+ X1/X2/X2/vin1 X1/X1/X3/vin2 X1/X1/X3/vin1 X1/X1/vout X1/X2/X2/m1_994_178# X1/sw_0/m1_994_178#
+ X1/X1/X1/m1_994_178# X1/sw_0/m1_688_n494# X1/X1/X2/vin1 vdd X1/X2/X3/vin2 X1/X2/X3/vin1
+ X1/X2/X2/m1_688_n494# X1/X1/X3/m1_994_178# X1/X1/X1/m1_688_n494# X1/X1/X3/m1_688_n494#
+ X2/vrefh X1/X2/X3/m1_688_n494# X3/vin1 d0 X1/X1/X1/vin1 X1/X1/X1/vin2 vrefh X1/X2/vrefh
+ vss X1/X2/vout X1/X1/X2/m1_994_178# X1/X2/X3/m1_994_178# X1/X2/X1/vin2 x3bit_dac
XX2 d1 d2 X2/X2/X1/m1_994_178# X2/X1/X2/m1_688_n494# X2/X2/X1/vin1 X2/X2/X1/m1_688_n494#
+ X2/X2/X2/vin1 X2/X1/X3/vin2 X2/X1/X3/vin1 X2/X1/vout X2/X2/X2/m1_994_178# X2/sw_0/m1_994_178#
+ X2/X1/X1/m1_994_178# X2/sw_0/m1_688_n494# X2/X1/X2/vin1 vdd X2/X2/X3/vin2 X2/X2/X3/vin1
+ X2/X2/X2/m1_688_n494# X2/X1/X3/m1_994_178# X2/X1/X1/m1_688_n494# X2/X1/X3/m1_688_n494#
+ vrefl X2/X2/X3/m1_688_n494# X3/vin2 d0 X2/X1/X1/vin1 X2/X1/X1/vin2 X2/vrefh X2/X2/vrefh
+ vss X2/X2/vout X2/X1/X2/m1_994_178# X2/X2/X3/m1_994_178# X2/X2/X1/vin2 x3bit_dac
XX3 X3/vin1 X3/vin2 vout vdd d3 X3/m1_688_n494# vss X3/m1_994_178# sw
C0 X1/X2/X3/m1_688_n494# X3/vin1 8.57e-19
C1 d1 vdd 0.519f
C2 X1/X2/X2/vin1 d3 8.68e-20
C3 X1/X2/X3/vin2 d3 3.9e-19
C4 X1/X2/X2/m1_994_178# X2/X1/X1/m1_994_178# 0.00396f
C5 X1/X2/X3/m1_994_178# vdd 6.13e-19
C6 X1/X2/X2/m1_688_n494# d3 1.89e-19
C7 X1/X1/vout X1/X2/vout -0.00707f
C8 X1/X2/X2/m1_994_178# d2 0.00533f
C9 X1/sw_0/m1_688_n494# X1/sw_0/m1_994_178# -8.53e-32
C10 X2/vrefh X2/X1/X1/m1_688_n494# 8.22e-20
C11 X2/X1/X1/vin2 d3 3.99e-21
C12 X3/m1_994_178# d2 0.00703f
C13 X1/sw_0/m1_994_178# d1 -9.18e-19
C14 X2/X1/X3/vin1 vdd -0.0496f
C15 vdd d0 0.0538f
C16 X2/X1/X2/m1_688_n494# d2 0.00618f
C17 X1/X1/X3/vin2 vdd -0.00143f
C18 X1/X2/vout d2 7.51e-19
C19 X1/X2/X1/vin2 d1 -0.0945f
C20 d1 X3/m1_688_n494# 0.0363f
C21 X2/X1/X3/m1_994_178# X3/m1_994_178# 6.2e-19
C22 X3/vin1 X3/m1_994_178# -2.84e-32
C23 X2/vrefh d1 0.00744f
C24 X1/X2/vout X3/vin1 0.325f
C25 X2/X2/vout d2 4.55e-20
C26 X2/X2/vrefh X2/X1/X3/vin2 -0.00423f
C27 X1/X2/X3/m1_994_178# X3/m1_688_n494# 3.08e-19
C28 X1/X2/X1/vin2 d0 0.0233f
C29 X2/X2/vrefh d2 0.168f
C30 X2/X1/X3/vin1 X3/m1_688_n494# 0.00837f
C31 d1 X2/X1/X1/m1_688_n494# 1.25e-19
C32 X2/vrefh X2/X1/X3/vin1 2.33e-19
C33 X2/X2/X3/vin1 d2 0.0524f
C34 X2/vrefh d0 0.818f
C35 X2/X1/vout X2/sw_0/m1_994_178# -0.00141f
C36 X2/X1/X1/vin1 vdd -0.00426f
C37 X2/X1/X3/vin2 d2 0.167f
C38 X1/X1/vout d2 8.47e-20
C39 X2/X2/vout X3/vin2 0.0142f
C40 X2/X1/X1/m1_994_178# d2 0.00272f
C41 X1/sw_0/m1_688_n494# d1 -0.00449f
C42 d1 vout 0.00166f
C43 X1/X1/vout X3/vin1 0.0265f
C44 X2/X1/X1/m1_688_n494# d0 0.028f
C45 X1/X2/X3/m1_994_178# d1 0.00692f
C46 X2/X2/X3/vin1 X3/vin2 1.42e-20
C47 X2/X1/X3/m1_994_178# d2 7.31e-20
C48 X3/vin1 d2 0.00136f
C49 X1/X2/X2/vin1 vdd -0.00217f
C50 X2/X1/X3/vin2 X3/vin2 0.0533f
C51 d1 X2/X1/X3/vin1 0.122f
C52 X2/vrefh X2/X1/X1/vin1 0.164f
C53 X1/X2/X3/vin2 vdd 0.0265f
C54 X2/sw_0/m1_688_n494# d2 0.0108f
C55 X1/X1/X3/vin2 d1 -7.83e-19
C56 X2/X1/X1/vin2 X2/X1/X3/m1_688_n494# -0.00743f
C57 X2/X1/X2/vin1 d2 0.0318f
C58 X1/X2/X2/m1_688_n494# vdd 0.00105f
C59 X3/vin2 d2 0.00193f
C60 d1 X2/sw_0/m1_994_178# -9.18e-19
C61 X1/X2/X1/vin1 d2 0.0114f
C62 X2/X1/X1/vin2 vdd -0.0393f
C63 X3/vin1 X3/vin2 0.0399f
C64 X1/X2/X3/vin1 X1/X2/vout -0.00915f
C65 X2/X1/X1/m1_688_n494# X2/X1/X1/vin1 -0.00247f
C66 X1/X2/X3/m1_688_n494# vdd -0.00137f
C67 d2 d3 0.00639f
C68 X2/sw_0/m1_688_n494# X3/vin2 0.0239f
C69 X2/vrefh X1/X2/X2/vin1 -0.033f
C70 X1/X2/X3/vin2 X3/m1_688_n494# 0.00846f
C71 X2/vrefh X1/X2/X3/vin2 -0.0225f
C72 d1 X2/X1/X1/vin1 0.0116f
C73 X2/X2/X3/m1_994_178# d2 2.71e-19
C74 X2/X1/X3/m1_994_178# d3 3.17e-19
C75 X3/vin1 d3 1.11e-34
C76 X2/vrefh X2/X1/X1/vin2 0.00388f
C77 X2/X1/X3/m1_688_n494# X3/m1_994_178# 3.21e-19
C78 X1/X2/X2/m1_994_178# vdd 5.58e-19
C79 X1/X2/X3/m1_688_n494# X3/m1_688_n494# 4.41e-20
C80 vdd X3/m1_994_178# 0.00418f
C81 X2/X1/X1/vin1 d0 0.219f
C82 X1/X2/X2/m1_688_n494# X2/X1/X1/m1_688_n494# 0.00198f
C83 X1/X2/vout vdd -0.00265f
C84 X1/X2/X2/vin1 d1 -6.55e-19
C85 X1/X2/X3/vin1 d2 0.153f
C86 X1/X2/X3/vin2 d1 0.126f
C87 X1/X2/X2/vin1 X1/X2/X3/m1_994_178# -5.34e-19
C88 vdd X2/X2/vout -4.16e-19
C89 X1/X2/X2/m1_688_n494# d1 3.02e-20
C90 X1/sw_0/m1_994_178# X1/X2/vout -1.42e-32
C91 d1 X2/X1/X1/vin2 -0.00107f
C92 X1/X2/X3/vin1 X3/vin1 0.0174f
C93 X2/X1/vout X3/m1_994_178# 1.64e-19
C94 X1/X2/X1/m1_688_n494# d2 0.00416f
C95 X1/X2/X2/vin1 d0 0.0624f
C96 X2/X2/vrefh vdd -0.0152f
C97 X3/m1_994_178# X3/m1_688_n494# -1.71e-31
C98 X1/X2/X3/m1_688_n494# vout 1.64e-19
C99 X2/X2/X3/vin1 vdd -0.00249f
C100 X1/X2/X3/m1_688_n494# d1 0.026f
C101 X2/X1/X3/vin2 vdd -0.0369f
C102 X2/X1/vout X2/X2/vout -4.3e-19
C103 X2/X1/X1/vin2 X2/X1/X3/vin1 -0.0141f
C104 X1/X2/X3/m1_994_178# X1/X2/X3/m1_688_n494# 5.68e-32
C105 X2/X1/X1/vin2 d0 0.0754f
C106 vdd d2 2.08f
C107 X2/X1/X1/m1_688_n494# X3/m1_994_178# 5.36e-21
C108 X2/X1/X3/m1_994_178# X2/X1/X3/m1_688_n494# 5.68e-32
C109 X1/X1/vout X1/sw_0/m1_994_178# -0.00129f
C110 X2/X1/X3/m1_994_178# vdd 5.01e-20
C111 X3/vin1 vdd 0.101f
C112 X2/X1/X3/vin2 X2/X1/vout -0.0165f
C113 X2/X1/X3/m1_688_n494# X3/vin2 8.57e-19
C114 d1 X3/m1_994_178# 0.0135f
C115 X1/sw_0/m1_688_n494# X1/X2/vout -0.00889f
C116 X2/X1/X3/vin2 X3/m1_688_n494# 3.49e-19
C117 X1/sw_0/m1_994_178# d2 0.0176f
C118 X2/sw_0/m1_688_n494# vdd -7.94e-19
C119 X1/X2/X2/m1_688_n494# X2/X1/X1/vin1 8.22e-20
C120 X2/X1/X2/vin1 vdd -0.00219f
C121 X1/X2/X1/vin2 d2 0.226f
C122 X1/X2/X3/m1_994_178# X3/m1_994_178# 6.48e-19
C123 vdd X3/vin2 0.696f
C124 X2/X1/vout d2 0.00121f
C125 X2/vrefh X2/X1/X1/m1_994_178# 1.64e-19
C126 X2/X1/X1/vin2 X2/X1/X1/vin1 -0.0277f
C127 d2 X3/m1_688_n494# 0.00112f
C128 X1/sw_0/m1_994_178# X3/vin1 0.014f
C129 X2/vrefh d2 0.158f
C130 X2/X1/X3/vin1 X3/m1_994_178# 0.00298f
C131 X2/X1/X3/m1_994_178# X3/m1_688_n494# 2.97e-19
C132 vdd d3 0.0106f
C133 X1/X2/X3/vin2 X1/X2/X2/vin1 -0.00316f
C134 X2/X2/vrefh d1 -0.0615f
C135 X2/X1/vout X2/sw_0/m1_688_n494# -0.00792f
C136 X2/X1/X1/m1_994_178# X2/X1/X1/m1_688_n494# 1.14e-31
C137 d1 X2/X2/X3/vin1 -5.52e-19
C138 X2/X1/vout X3/vin2 0.295f
C139 X2/X1/X1/m1_688_n494# d2 0.00328f
C140 X1/X1/vout X1/sw_0/m1_688_n494# -0.00463f
C141 d1 X2/X1/X3/vin2 -0.00276f
C142 X1/sw_0/m1_688_n494# d2 0.0105f
C143 d2 vout 1.57e-20
C144 X1/X2/X2/m1_994_178# X2/X1/X1/vin1 1.64e-19
C145 X2/X2/vrefh d0 1.55e-19
C146 X1/X2/X2/vin1 X1/X2/X3/m1_688_n494# -0.00351f
C147 d1 d2 1.31f
C148 X2/vrefh d3 6.65e-20
C149 X1/X2/X3/m1_994_178# d2 2.71e-19
C150 X1/sw_0/m1_688_n494# X3/vin1 0.0362f
C151 d1 X2/X1/X3/m1_994_178# 0.0101f
C152 d1 X3/vin1 0.00179f
C153 X2/X1/X1/m1_994_178# d0 0.0069f
C154 X1/X2/X3/vin1 vdd -0.0352f
C155 d1 X2/sw_0/m1_688_n494# -0.00449f
C156 X2/X1/X3/vin1 d2 0.104f
C157 d0 d2 4.31e-19
C158 X1/X1/X3/vin2 d2 0.0586f
C159 d1 X2/X1/X2/vin1 -0.0143f
C160 d1 X3/vin2 0.00807f
C161 X2/X1/X1/m1_688_n494# d3 0.00112f
C162 X2/sw_0/m1_994_178# d2 0.0197f
C163 X1/X2/X3/vin2 X3/m1_994_178# 0.00143f
C164 X1/X2/X3/vin2 X1/X2/vout -0.00497f
C165 X1/X2/X1/m1_994_178# d2 0.00351f
C166 X1/X2/X1/vin2 X1/X2/X3/vin1 -0.00423f
C167 X1/X2/X2/m1_688_n494# X3/m1_994_178# 4.72e-20
C168 d1 d3 0.0143f
C169 X2/X1/X2/m1_994_178# d2 0.00464f
C170 X2/X1/X2/vin1 d0 2.3e-20
C171 X2/X1/X3/vin1 X3/vin2 0.0321f
C172 X2/X1/X3/m1_688_n494# vdd -0.00348f
C173 X2/X1/X1/m1_994_178# X2/X1/X1/vin1 -1.07e-19
C174 X1/X1/X3/m1_994_178# d2 7.31e-20
C175 X1/X2/X3/m1_994_178# d3 3.25e-19
C176 X2/sw_0/m1_994_178# X3/vin2 0.0147f
C177 X2/X1/X1/vin1 d2 0.0105f
C178 X1/X2/X3/m1_688_n494# X3/m1_994_178# 3.3e-19
C179 X2/X1/X3/vin1 d3 0.00192f
C180 X1/X2/vrefh d0 1.38e-20
C181 X2/X1/X3/m1_688_n494# X3/m1_688_n494# 5.25e-20
C182 X1/X2/X1/vin2 vdd -0.0262f
C183 X1/X2/X2/vin1 d2 0.0329f
C184 X2/X1/vout vdd -0.00524f
C185 X1/X2/X3/vin1 d1 -0.00179f
C186 vdd X3/m1_688_n494# 0.0122f
C187 X1/X2/X3/vin2 d2 0.0902f
C188 X2/vrefh vdd 0.00674f
C189 X1/X2/X2/m1_688_n494# d2 0.00792f
C190 X1/X2/vout X3/m1_994_178# 7.93e-20
C191 X2/X1/X1/vin1 d3 6.34e-20
C192 X2/X1/X1/vin2 d2 0.231f
C193 X1/X2/X3/vin2 X3/vin1 0.0565f
C194 X2/X1/X1/m1_688_n494# vdd -0.00178f
C195 X2/X1/X1/vin2 X2/X1/X3/m1_994_178# -0.00113f
C196 X2/X1/X3/m1_688_n494# vout 7.93e-20
C197 X1/X2/X1/vin2 X2/vrefh -2.85e-19
C198 d1 X2/X1/X3/m1_688_n494# 0.0355f
C199 d3 vss 0.621f
C200 vout vss 0.2f
C201 X3/m1_688_n494# vss 0.86f
C202 X3/m1_994_178# vss 1.15f
C203 d2 vss 2.17f
C204 X3/vin2 vss 1.83f
C205 X2/sw_0/m1_688_n494# vss 0.858f
C206 X2/sw_0/m1_994_178# vss 1.15f
C207 X2/X2/vout vss 0.868f
C208 X2/X2/X3/m1_688_n494# vss 0.858f
C209 X2/X2/X3/m1_994_178# vss 1.15f
C210 vdd vss 73.9f
C211 d0 vss 8.26f
C212 X2/X2/X2/vin1 vss 1.46f
C213 X2/X2/X3/vin2 vss 1.23f
C214 X2/X2/X2/m1_688_n494# vss 0.858f
C215 X2/X2/X2/m1_994_178# vss 1.15f
C216 vrefl vss 2.39f
C217 X2/X2/X1/vin1 vss 1.91f
C218 X2/X2/X3/vin1 vss 0.814f
C219 X2/X2/X1/m1_688_n494# vss 0.858f
C220 X2/X2/X1/m1_994_178# vss 1.15f
C221 X2/X2/X1/vin2 vss 1.73f
C222 X2/X1/vout vss 0.606f
C223 X2/X1/X3/m1_688_n494# vss 0.858f
C224 X2/X1/X3/m1_994_178# vss 1.15f
C225 X2/X1/X2/vin1 vss 1.46f
C226 X2/X1/X3/vin2 vss 1.23f
C227 X2/X1/X2/m1_688_n494# vss 0.858f
C228 X2/X1/X2/m1_994_178# vss 1.15f
C229 X2/X2/vrefh vss 3.27f
C230 X2/X1/X1/vin1 vss 1.92f
C231 X2/X1/X3/vin1 vss 0.839f
C232 X2/X1/X1/m1_688_n494# vss 0.858f
C233 X2/X1/X1/m1_994_178# vss 1.15f
C234 X2/X1/X1/vin2 vss 1.73f
C235 X3/vin1 vss 2.22f
C236 X1/sw_0/m1_688_n494# vss 0.857f
C237 X1/sw_0/m1_994_178# vss 1.15f
C238 d1 vss 3.57f
C239 X1/X2/vout vss 0.85f
C240 X1/X2/X3/m1_688_n494# vss 0.856f
C241 X1/X2/X3/m1_994_178# vss 1.15f
C242 X1/X2/X2/vin1 vss 1.46f
C243 X1/X2/X3/vin2 vss 1.21f
C244 X1/X2/X2/m1_688_n494# vss 0.858f
C245 X1/X2/X2/m1_994_178# vss 1.15f
C246 X2/vrefh vss 3.29f
C247 X1/X2/X1/vin1 vss 1.91f
C248 X1/X2/X3/vin1 vss 0.811f
C249 X1/X2/X1/m1_688_n494# vss 0.858f
C250 X1/X2/X1/m1_994_178# vss 1.15f
C251 X1/X2/X1/vin2 vss 1.73f
C252 X1/X1/vout vss 0.607f
C253 X1/X1/X3/m1_688_n494# vss 0.858f
C254 X1/X1/X3/m1_994_178# vss 1.15f
C255 X1/X1/X2/vin1 vss 1.46f
C256 X1/X1/X3/vin2 vss 1.23f
C257 X1/X1/X2/m1_688_n494# vss 0.858f
C258 X1/X1/X2/m1_994_178# vss 1.15f
C259 X1/X2/vrefh vss 3.27f
C260 X1/X1/X1/vin1 vss 1.91f
C261 X1/X1/X3/vin1 vss 0.816f
C262 X1/X1/X1/m1_688_n494# vss 0.858f
C263 X1/X1/X1/m1_994_178# vss 1.15f
C264 X1/X1/X1/vin2 vss 1.73f
C265 vrefh vss 1.11f
.ends

.subckt x5bit_dac d4 vout X1/X1/X2/X2/vin1 X1/X2/X1/X1/vin2 X2/X2/X2/vout X1/X2/X2/X1/vin1
+ X1/X2/X2/X2/vin1 X2/X1/X2/X1/vin1 X1/X1/X1/X3/vin2 X2/X1/X2/X2/vin1 X1/X1/X1/X3/vin1
+ X1/X1/X1/X3/m1_994_178# X2/X1/X2/X1/vin2 X1/X2/X1/X1/vin1 X1/X1/X1/vout X2/X2/X2/X1/vin1
+ X2/X3/m1_688_n494# X1/X2/X1/X2/vin1 X1/X2/X2/X1/vin2 X2/X1/X1/X1/vin1 X2/X2/sw_0/m1_994_178#
+ X2/X1/X1/X2/vin1 vrefh X1/X2/X1/X3/m1_688_n494# X1/X1/X2/X3/vin2 X1/X1/X1/X3/m1_688_n494#
+ X1/X1/X2/X3/vin1 X2/X1/X2/vrefh X2/X2/X1/X1/vin1 X1/X2/X2/X3/vin2 X2/X1/X1/X3/m1_688_n494#
+ X2/X2/sw_0/m1_688_n494# X2/X2/X1/X2/vin1 X1/X3/m1_688_n494# X1/X1/X2/vrefh X1/X2/X1/vout
+ X1/X2/X2/X3/vin1 X1/X1/X1/X1/vin2 X2/X2/X1/X1/vin2 X2/X1/X1/X3/vin1 X1/X1/X1/X1/m1_994_178#
+ X1/X1/X1/X1/vin1 X1/X3/vin1 X1/X1/X2/vout X2/X2/X2/X2/vin1 X1/X2/X2/X3/m1_994_178#
+ X2/X1/X1/vout X1/X1/sw_0/m1_994_178# X2/X2/X1/X3/vin2 X2/X2/X1/vout X1/X1/sw_0/m1_688_n494#
+ X2/X1/X2/X3/m1_688_n494# X2/X2/X1/X3/vin1 X2/X2/X2/X2/m1_688_n494# X2/X3/vin2 X2/X2/X1/X3/m1_994_178#
+ X2/X3/vin1 X2/X1/X1/X3/vin2 X2/X1/X1/X3/m1_994_178# X2/X2/vrefh X1/X1/X1/X1/m1_688_n494#
+ X1/X2/X2/vrefh X1/X3/vin2 X2/X2/X2/vrefh X3/vin1 X2/X2/X2/X2/m1_994_178# X1/X2/sw_0/m1_688_n494#
+ X2/X2/X1/X3/m1_688_n494# X1/X1/X2/X3/m1_994_178# X3/m1_688_n494# X1/X1/X2/X1/vin2
+ X2/X2/X2/X1/vin2 X2/X1/X2/vout X1/X2/vrefh X2/X2/X2/X3/m1_994_178# X1/X1/X2/X1/vin1
+ X2/X2/X2/X3/m1_688_n494# vdd X1/X2/X2/vout X2/X1/X1/X1/vin2 X1/X2/X2/X3/m1_688_n494#
+ d3 X1/X1/X2/X3/m1_688_n494# d1 X2/X2/X2/X3/vin2 d2 X1/X1/X1/X2/vin1 X2/X1/sw_0/m1_688_n494#
+ d0 vss X3/m1_994_178# X2/vrefh X2/X2/X2/X3/vin1 X3/vin2 vrefl
XX1 vrefh d3 X1/X2/X2/X1/m1_688_n494# X1/X2/X1/X2/vin1 X1/X2/X1/X1/vin2 X1/X2/X2/vrefh
+ X1/X1/X1/X3/vin1 X1/X1/X1/X3/vin2 X1/X2/X2/X1/vin2 X1/X1/X1/vout X2/vrefh X1/X1/X1/X3/m1_994_178#
+ d1 X1/X1/X2/X3/vin2 X1/X3/vin2 X1/X1/X1/X3/m1_688_n494# X1/X1/X2/X3/vin1 X1/X3/m1_994_178#
+ X3/vin1 X1/X1/sw_0/m1_994_178# X1/X1/X2/X1/vin1 X1/X2/X1/X3/vin1 X1/X2/X2/X3/vin2
+ X1/X1/X2/X2/vin1 X1/X2/sw_0/m1_688_n494# X1/X2/X2/X3/vin1 X1/X2/X2/X2/m1_994_178#
+ X1/X1/X1/X2/m1_994_178# X1/X1/X2/X3/m1_994_178# X1/X2/X2/vout X1/X3/vin1 X1/X2/X2/X2/m1_688_n494#
+ X1/X2/X2/X1/m1_994_178# X1/X2/sw_0/m1_994_178# X1/X2/X1/X3/m1_688_n494# X1/X2/X2/X1/vin1
+ X1/X2/X1/vout X1/X1/X2/vout X1/X1/X1/X1/vin1 X1/X2/X2/X2/vin1 X1/X1/X1/X1/vin2 X1/X3/m1_688_n494#
+ vdd X1/X2/X1/X3/vin2 X1/X1/X1/X2/vin1 X1/X1/sw_0/m1_688_n494# X1/X1/X2/vrefh X1/X2/X2/X3/m1_994_178#
+ d0 X1/X2/X1/X3/m1_994_178# X1/X2/X2/X3/m1_688_n494# X1/X1/X2/X3/m1_688_n494# X1/X1/X1/X1/m1_994_178#
+ d2 vss X1/X2/vrefh X1/X1/X1/X2/m1_688_n494# X1/X1/X1/X1/m1_688_n494# X1/X2/X1/X1/vin1
+ X1/X1/X2/X1/vin2 x4bit_dac
XX2 X2/vrefh d3 X2/X2/X2/X1/m1_688_n494# X2/X2/X1/X2/vin1 X2/X2/X1/X1/vin2 X2/X2/X2/vrefh
+ X2/X1/X1/X3/vin1 X2/X1/X1/X3/vin2 X2/X2/X2/X1/vin2 X2/X1/X1/vout vrefl X2/X1/X1/X3/m1_994_178#
+ d1 X2/X1/X2/X3/vin2 X2/X3/vin2 X2/X1/X1/X3/m1_688_n494# X2/X1/X2/X3/vin1 X2/X3/m1_994_178#
+ X3/vin2 X2/X1/sw_0/m1_994_178# X2/X1/X2/X1/vin1 X2/X2/X1/X3/vin1 X2/X2/X2/X3/vin2
+ X2/X1/X2/X2/vin1 X2/X2/sw_0/m1_688_n494# X2/X2/X2/X3/vin1 X2/X2/X2/X2/m1_994_178#
+ X2/X1/X1/X2/m1_994_178# X2/X1/X2/X3/m1_994_178# X2/X2/X2/vout X2/X3/vin1 X2/X2/X2/X2/m1_688_n494#
+ X2/X2/X2/X1/m1_994_178# X2/X2/sw_0/m1_994_178# X2/X2/X1/X3/m1_688_n494# X2/X2/X2/X1/vin1
+ X2/X2/X1/vout X2/X1/X2/vout X2/X1/X1/X1/vin1 X2/X2/X2/X2/vin1 X2/X1/X1/X1/vin2 X2/X3/m1_688_n494#
+ vdd X2/X2/X1/X3/vin2 X2/X1/X1/X2/vin1 X2/X1/sw_0/m1_688_n494# X2/X1/X2/vrefh X2/X2/X2/X3/m1_994_178#
+ d0 X2/X2/X1/X3/m1_994_178# X2/X2/X2/X3/m1_688_n494# X2/X1/X2/X3/m1_688_n494# X2/X1/X1/X1/m1_994_178#
+ d2 vss X2/X2/vrefh X2/X1/X1/X2/m1_688_n494# X2/X1/X1/X1/m1_688_n494# X2/X2/X1/X1/vin1
+ X2/X1/X2/X1/vin2 x4bit_dac
XX3 X3/vin1 X3/vin2 vout vdd d4 X3/m1_688_n494# vss X3/m1_994_178# sw
C0 X2/X1/X1/vout X3/vin2 0.0524f
C1 X1/X2/X1/X3/vin1 X3/vin1 0.0131f
C2 vdd X3/m1_688_n494# 7.42e-19
C3 X1/X2/X2/X1/m1_994_178# d2 0.00274f
C4 X1/X2/sw_0/m1_688_n494# d3 5.8e-19
C5 X1/X2/X1/vout d3 0.00226f
C6 vdd X2/X1/X1/X3/m1_994_178# 5.01e-20
C7 d2 d4 0.0103f
C8 X2/X1/X1/X2/vin1 d2 0.0309f
C9 X1/X2/X2/vrefh d0 1.38e-20
C10 X1/X2/X2/X1/vin2 d2 0.231f
C11 X2/X1/X2/X3/m1_688_n494# d3 0.00106f
C12 X2/X3/vin1 X2/X3/m1_994_178# -7.49e-19
C13 vdd d3 1.03f
C14 X2/X1/X1/X3/vin2 d2 0.106f
C15 X2/X1/X1/X3/vin1 X3/m1_994_178# 0.00298f
C16 X2/X1/X1/X1/vin2 d4 3.99e-21
C17 X2/X1/X1/X3/vin1 d2 0.104f
C18 X1/X3/m1_688_n494# X3/vin1 0.109f
C19 X1/X2/X2/X2/vin1 d0 0.0624f
C20 X2/X1/X2/vrefh X2/X1/X1/X3/vin2 -0.00423f
C21 vdd X2/X1/X1/X3/m1_688_n494# -0.00348f
C22 X2/X1/X1/X1/vin2 X2/X1/X1/X3/vin1 -0.0141f
C23 X2/X1/X1/X3/m1_994_178# d4 3.17e-19
C24 X1/X1/X2/X3/vin2 vdd -2.84e-32
C25 X1/X1/X2/X3/vin1 d3 2.1e-19
C26 X2/X3/m1_994_178# d2 -0.00133f
C27 X2/X1/X1/X3/vin2 X3/m1_688_n494# 3.49e-19
C28 X1/X3/vin1 X1/X3/m1_994_178# -0.0012f
C29 vdd X1/X2/X2/X3/m1_688_n494# -1.82e-19
C30 X1/X3/m1_688_n494# d2 -4.03e-19
C31 X2/vrefh vdd -0.00501f
C32 X2/X1/X2/vout d3 0.0232f
C33 X2/X3/vin1 X2/X3/vin2 -0.00203f
C34 X2/X3/m1_688_n494# X3/vin2 0.0523f
C35 X2/X1/X1/X3/vin1 X3/m1_688_n494# 0.00837f
C36 X1/X2/X1/X3/vin1 d3 0.0176f
C37 X1/X2/X2/X3/m1_994_178# X1/X2/X2/X2/vin1 -5.34e-19
C38 vdd X1/X2/X2/X2/m1_688_n494# 6.24e-19
C39 X2/X1/X2/X3/vin2 d3 0.0114f
C40 X2/X1/X1/X1/vin1 d2 0.0116f
C41 d1 vdd 0.355f
C42 X2/X3/vin1 d2 3.74e-20
C43 X2/vrefh X2/X1/X1/X1/m1_688_n494# 8.22e-20
C44 X2/X1/X2/X3/vin1 d3 2.1e-19
C45 vdd X2/X1/X1/vout -6.12e-19
C46 X1/X2/X2/X2/m1_688_n494# X2/X1/X1/X1/m1_688_n494# 0.00198f
C47 X2/X1/X1/X1/vin2 X2/X1/X1/X1/vin1 -0.0277f
C48 X1/X2/X2/X2/m1_994_178# X2/X1/X1/X1/m1_994_178# 0.00396f
C49 X3/vin1 d2 6.26e-19
C50 X1/X3/vin1 X1/X3/vin2 -0.00783f
C51 vdd X1/X2/X2/vout 0.165f
C52 d1 X2/X1/X1/X1/m1_688_n494# 1.25e-19
C53 X2/vrefh d4 6.65e-20
C54 X2/X2/X1/X3/vin2 d3 7.71e-19
C55 X2/X3/m1_994_178# d3 0.119f
C56 d2 X3/m1_994_178# 0.0123f
C57 X1/X3/m1_688_n494# d3 0.273f
C58 X1/X2/X2/X1/vin2 X2/vrefh -2.85e-19
C59 X1/X2/X2/X2/m1_688_n494# d4 1.89e-19
C60 vdd X1/X2/X2/X3/vin2 0.0508f
C61 X2/X1/X1/X1/m1_994_178# X2/X1/X1/X1/m1_688_n494# -2.84e-32
C62 X1/X2/X2/X3/vin1 vdd -0.0314f
C63 d1 d4 0.0105f
C64 X2/vrefh X2/X1/X1/X3/vin1 2.33e-19
C65 d1 X2/X1/X1/X2/vin1 -0.0143f
C66 X2/X1/X1/X2/m1_994_178# d2 0.00414f
C67 d1 X1/X2/X2/X1/vin2 -0.0983f
C68 X2/X1/X1/X1/vin2 d2 0.231f
C69 X1/X2/X2/X3/vin2 X2/X1/X1/X1/m1_688_n494# 8.07e-19